gem5 Simulator System.  http://gem5.org
gem5 is copyrighted software; use the --copyright option for details.

gem5 version 20.1.0.2
gem5 compiled Dec  8 2021 05:50:25
gem5 started Dec  8 2021 05:51:51
gem5 executing on ARCH-750, pid 996329
command line: /data/home/ycc32/450_project/gem5/build/X86/gem5.opt --debug-flags=HWPrefetch -re --outdir=/data/home/ycc32/450_project/gem5/results/X86/run_micro/ED1/Minor4/Slow/DDR3_2133_8x8/1GHz gem5-config/run_micro.py Minor4 Slow microbenchmark/ED1/bench.X86 DDR3_2133_8x8 --clock=1GHz

1GHz CPU speed and DRAM = DDR3_2133_8x8
system.py: init L2 cache with size 1MB
Global frequency set at 1000000000000 ticks per second
   1000: system.cpu.l1i.prefetcher: INSERTENTRY(): spatio_region:        0X3, pc:   0x401be0, physical addr:     0x1bc0
   1000: system.cpu.l1i.prefetcher: Created FT entry with:   0x401be0
   1000: system.cpu.l1i.prefetcher: CONGRATS: SUCCESS in inserting new FT entry found!!
  79000: system.cpu.l1i.prefetcher: INSERTENTRY(): spatio_region:        0X3, pc:   0x401c00, physical addr:     0x1c00
  79000: system.cpu.l1i.prefetcher: Created FT entry with:   0x401c00
  79000: system.cpu.l1i.prefetcher: CONGRATS: SUCCESS in inserting new FT entry found!!
  82000: system.cpu.l1d.prefetcher: INSERTENTRY(): spatio_region:      0X187, pc:   0x401be9, physical addr:    0xc3e40
  82000: system.cpu.l1d.prefetcher: Created FT entry with:   0x401be9
  82000: system.cpu.l1d.prefetcher: CONGRATS: SUCCESS in inserting new FT entry found!!
 143000: system.cpu.l1i.prefetcher: INSERTENTRY(): spatio_region:        0X3, pc:   0x401c40, physical addr:     0x1c40
 143000: system.cpu.l1i.prefetcher: Created FT entry with:   0x401c40
 143000: system.cpu.l1i.prefetcher: CONGRATS: SUCCESS in inserting new FT entry found!!
 161000: system.cpu.l1d.prefetcher: INSERTENTRY(): spatio_region:      0X187, pc:   0x401bf1, physical addr:    0xc3e38
 161000: system.cpu.l1d.prefetcher: Created FT entry with:   0x401bf1
 161000: system.cpu.l1d.prefetcher: CONGRATS: SUCCESS in inserting new FT entry found!!
 162000: system.cpu.l1d.prefetcher: INSERTENTRY(): spatio_region:      0X187, pc:   0x401bf2, physical addr:    0xc3e30
 162000: system.cpu.l1d.prefetcher: Created FT entry with:   0x401bf2
 162000: system.cpu.l1d.prefetcher: CONGRATS: SUCCESS in inserting new FT entry found!!
 207000: system.cpu.l1i.prefetcher: INSERTENTRY(): spatio_region:        0X4, pc:   0x4020c0, physical addr:     0x20c0
 207000: system.cpu.l1i.prefetcher: Created FT entry with:   0x4020c0
 207000: system.cpu.l1i.prefetcher: CONGRATS: SUCCESS in inserting new FT entry found!!
 298000: system.cpu.l1i.prefetcher: INSERTENTRY(): spatio_region:        0X4, pc:   0x402100, physical addr:     0x2100
 298000: system.cpu.l1i.prefetcher: Created FT entry with:   0x402100
 298000: system.cpu.l1i.prefetcher: CONGRATS: SUCCESS in inserting new FT entry found!!
 318000: system.cpu.l1d.prefetcher: INSERTENTRY(): spatio_region:      0X187, pc:   0x4020de, physical addr:    0xc3d30
 318000: system.cpu.l1d.prefetcher: Created FT entry with:   0x4020de
 318000: system.cpu.l1d.prefetcher: CONGRATS: SUCCESS in inserting new FT entry found!!
 321000: system.cpu.l1d.prefetcher: INSERTENTRY(): spatio_region:      0X187, pc:   0x4020ea, physical addr:    0xc3d38
 321000: system.cpu.l1d.prefetcher: Created FT entry with:   0x4020ea
 321000: system.cpu.l1d.prefetcher: CONGRATS: SUCCESS in inserting new FT entry found!!
 364000: system.cpu.l1i.prefetcher: INSERTENTRY(): spatio_region:        0X4, pc:   0x402140, physical addr:     0x2140
 364000: system.cpu.l1i.prefetcher: Created FT entry with:   0x402140
 364000: system.cpu.l1i.prefetcher: CONGRATS: SUCCESS in inserting new FT entry found!!
 408000: system.cpu.l1d.prefetcher: INSERTENTRY(): spatio_region:      0X180, pc:   0x402101, physical addr:    0xc06c8
 408000: system.cpu.l1d.prefetcher: Created FT entry with:   0x402101
 408000: system.cpu.l1d.prefetcher: CONGRATS: SUCCESS in inserting new FT entry found!!
 460000: system.cpu.l1i.prefetcher: INSERTENTRY(): spatio_region:        0X3, pc:   0x401c80, physical addr:     0x1c80
 460000: system.cpu.l1i.prefetcher: Created FT entry with:   0x401c80
 460000: system.cpu.l1i.prefetcher: CONGRATS: SUCCESS in inserting new FT entry found!!
 555000: system.cpu.l1i.prefetcher: INSERTENTRY(): spatio_region:        0X4, pc:   0x402180, physical addr:     0x2180
 555000: system.cpu.l1i.prefetcher: Created FT entry with:   0x402180
 555000: system.cpu.l1i.prefetcher: CONGRATS: SUCCESS in inserting new FT entry found!!
 562000: system.cpu.l1d.prefetcher: INSERTENTRY(): spatio_region:      0X183, pc:   0x402123, physical addr:    0xc1ce8
 562000: system.cpu.l1d.prefetcher: Created FT entry with:   0x402123
 562000: system.cpu.l1d.prefetcher: CONGRATS: SUCCESS in inserting new FT entry found!!
 565000: system.cpu.l1d.prefetcher: INSERTENTRY(): spatio_region:      0X17D, pc:   0x40212a, physical addr:    0xbea70
 565000: system.cpu.l1d.prefetcher: Created FT entry with:   0x40212a
 565000: system.cpu.l1d.prefetcher: CONGRATS: SUCCESS in inserting new FT entry found!!
 619000: system.cpu.l1i.prefetcher: INSERTENTRY(): spatio_region:        0X4, pc:   0x4021c0, physical addr:     0x21c0
 619000: system.cpu.l1i.prefetcher: Created FT entry with:   0x4021c0
 619000: system.cpu.l1i.prefetcher: CONGRATS: SUCCESS in inserting new FT entry found!!
 683000: system.cpu.l1i.prefetcher: INSERTENTRY(): spatio_region:       0X98, pc:   0x44c3c0, physical addr:    0x4c3c0
 683000: system.cpu.l1i.prefetcher: Created FT entry with:   0x44c3c0
 683000: system.cpu.l1i.prefetcher: CONGRATS: SUCCESS in inserting new FT entry found!!
 760000: system.cpu.l1i.prefetcher: INSERTENTRY(): spatio_region:       0X98, pc:   0x44c400, physical addr:    0x4c400
 760000: system.cpu.l1i.prefetcher: Created FT entry with:   0x44c400
 760000: system.cpu.l1i.prefetcher: CONGRATS: SUCCESS in inserting new FT entry found!!
 767000: system.cpu.l1d.prefetcher: INSERTENTRY(): spatio_region:      0X184, pc:   0x44c3c7, physical addr:    0xc27e0
 767000: system.cpu.l1d.prefetcher: Created FT entry with:   0x44c3c7
 767000: system.cpu.l1d.prefetcher: CONGRATS: SUCCESS in inserting new FT entry found!!
 773000: system.cpu.l1d.prefetcher: INSERTENTRY(): spatio_region:      0X183, pc:   0x44c3d9, physical addr:    0xc1d00
 773000: system.cpu.l1d.prefetcher: Created FT entry with:   0x44c3d9
 773000: system.cpu.l1d.prefetcher: CONGRATS: SUCCESS in inserting new FT entry found!!
 824000: system.cpu.l1i.prefetcher: INSERTENTRY(): spatio_region:       0X98, pc:   0x44c440, physical addr:    0x4c440
 824000: system.cpu.l1i.prefetcher: Created FT entry with:   0x44c440
 824000: system.cpu.l1i.prefetcher: CONGRATS: SUCCESS in inserting new FT entry found!!
 862000: system.cpu.l1d.prefetcher: INSERTENTRY(): spatio_region:      0X185, pc:   0x44c3e8, physical addr:    0xc2890
 862000: system.cpu.l1d.prefetcher: Created FT entry with:   0x44c3e8
 862000: system.cpu.l1d.prefetcher: CONGRATS: SUCCESS in inserting new FT entry found!!
 888000: system.cpu.l1i.prefetcher: INSERTENTRY(): spatio_region:       0X98, pc:   0x44c480, physical addr:    0x4c480
 888000: system.cpu.l1i.prefetcher: Created FT entry with:   0x44c480
 888000: system.cpu.l1i.prefetcher: CONGRATS: SUCCESS in inserting new FT entry found!!
 927000: system.cpu.l1d.prefetcher: INSERTENTRY(): spatio_region:      0X180, pc:   0x44c3f6, physical addr:    0xc0118
 927000: system.cpu.l1d.prefetcher: Created FT entry with:   0x44c3f6
 927000: system.cpu.l1d.prefetcher: CONGRATS: SUCCESS in inserting new FT entry found!!
 952000: system.cpu.l1i.prefetcher: INSERTENTRY(): spatio_region:       0X98, pc:   0x44c4c0, physical addr:    0x4c4c0
 952000: system.cpu.l1i.prefetcher: Created FT entry with:   0x44c4c0
 952000: system.cpu.l1i.prefetcher: CONGRATS: SUCCESS in inserting new FT entry found!!
 991000: system.cpu.l1d.prefetcher: INSERTENTRY(): spatio_region:      0X185, pc:   0x44c404, physical addr:    0xc2848
 991000: system.cpu.l1d.prefetcher: Created FT entry with:   0x44c404
 991000: system.cpu.l1d.prefetcher: CONGRATS: SUCCESS in inserting new FT entry found!!
1054000: system.cpu.l1d.prefetcher: INSERTENTRY(): spatio_region:      0X185, pc:   0x44c40b, physical addr:    0xc2810
1054000: system.cpu.l1d.prefetcher: Created FT entry with:   0x44c40b
1054000: system.cpu.l1d.prefetcher: CONGRATS: SUCCESS in inserting new FT entry found!!
1119000: system.cpu.l1d.prefetcher: INSERTENTRY(): spatio_region:      0X187, pc:   0x44c412, physical addr:    0xc3cf8
1119000: system.cpu.l1d.prefetcher: Created FT entry with:   0x44c412
1119000: system.cpu.l1d.prefetcher: CONGRATS: SUCCESS in inserting new FT entry found!!
1120000: system.cpu.l1d.prefetcher: INSERTENTRY(): spatio_region:      0X187, pc:   0x44c417, physical addr:    0xc3cf0
1120000: system.cpu.l1d.prefetcher: Created FT entry with:   0x44c417
1120000: system.cpu.l1d.prefetcher: CONGRATS: SUCCESS in inserting new FT entry found!!
1188000: system.cpu.l1d.prefetcher: INSERTENTRY(): spatio_region:      0X17D, pc:   0x44c42b, physical addr:    0xbeaa0
1188000: system.cpu.l1d.prefetcher: Created FT entry with:   0x44c42b
1188000: system.cpu.l1d.prefetcher: CONGRATS: SUCCESS in inserting new FT entry found!!
1256000: system.cpu.l1i.prefetcher: INSERTENTRY(): spatio_region:       0X98, pc:   0x44c500, physical addr:    0x4c500
1256000: system.cpu.l1i.prefetcher: Created FT entry with:   0x44c500
1256000: system.cpu.l1i.prefetcher: CONGRATS: SUCCESS in inserting new FT entry found!!
1287000: system.cpu.l1d.prefetcher: INSERTENTRY(): spatio_region:      0X187, pc:   0x44c484, physical addr:    0xc3cb8
1287000: system.cpu.l1d.prefetcher: Created FT entry with:   0x44c484
1287000: system.cpu.l1d.prefetcher: CONGRATS: SUCCESS in inserting new FT entry found!!
1288000: system.cpu.l1d.prefetcher: INSERTENTRY(): spatio_region:      0X187, pc:   0x44c48b, physical addr:    0xc3cb0
1288000: system.cpu.l1d.prefetcher: Created FT entry with:   0x44c48b
1288000: system.cpu.l1d.prefetcher: CONGRATS: SUCCESS in inserting new FT entry found!!
1320000: system.cpu.l1i.prefetcher: INSERTENTRY(): spatio_region:       0X98, pc:   0x44c540, physical addr:    0x4c540
1320000: system.cpu.l1i.prefetcher: Created FT entry with:   0x44c540
1320000: system.cpu.l1i.prefetcher: CONGRATS: SUCCESS in inserting new FT entry found!!
1350000: system.cpu.l1d.prefetcher: INSERTENTRY(): spatio_region:      0X131, pc:   0x44c4a2, physical addr:    0x98fb8
1350000: system.cpu.l1d.prefetcher: Created FT entry with:   0x44c4a2
1350000: system.cpu.l1d.prefetcher: CONGRATS: SUCCESS in inserting new FT entry found!!
1429000: system.cpu.l1i.prefetcher: INSERTENTRY(): spatio_region:       0X98, pc:   0x44c5b0, physical addr:    0x4c580
1429000: system.cpu.l1i.prefetcher: Created FT entry with:   0x44c5b0
1429000: system.cpu.l1i.prefetcher: CONGRATS: SUCCESS in inserting new FT entry found!!
1493000: system.cpu.l1i.prefetcher: INSERTENTRY(): spatio_region:       0X98, pc:   0x44c5c0, physical addr:    0x4c5c0
1493000: system.cpu.l1i.prefetcher: Created FT entry with:   0x44c5c0
1493000: system.cpu.l1i.prefetcher: CONGRATS: SUCCESS in inserting new FT entry found!!
1557000: system.cpu.l1i.prefetcher: INSERTENTRY(): spatio_region:       0X98, pc:   0x44c600, physical addr:    0x4c600
1557000: system.cpu.l1i.prefetcher: Created FT entry with:   0x44c600
1557000: system.cpu.l1i.prefetcher: CONGRATS: SUCCESS in inserting new FT entry found!!
1630000: system.cpu.l1d.prefetcher: INSERTENTRY(): spatio_region:      0X131, pc:   0x44c4a2, physical addr:    0x98f74
1630000: system.cpu.l1d.prefetcher: Created FT entry with:   0x44c4a2
1630000: system.cpu.l1d.prefetcher: CONGRATS: SUCCESS in inserting new FT entry found!!
1696000: system.cpu.l1i.prefetcher: INSERTENTRY(): spatio_region:       0X98, pc:   0x44c680, physical addr:    0x4c680
1696000: system.cpu.l1i.prefetcher: Created FT entry with:   0x44c680
1696000: system.cpu.l1i.prefetcher: CONGRATS: SUCCESS in inserting new FT entry found!!
1760000: system.cpu.l1i.prefetcher: INSERTENTRY(): spatio_region:       0X98, pc:   0x44c6c0, physical addr:    0x4c6c0
1760000: system.cpu.l1i.prefetcher: Created FT entry with:   0x44c6c0
1760000: system.cpu.l1i.prefetcher: CONGRATS: SUCCESS in inserting new FT entry found!!
1769000: system.cpu.l1d.prefetcher: INSERTENTRY(): spatio_region:      0X187, pc:   0x44c692, physical addr:    0xc3e80
1769000: system.cpu.l1d.prefetcher: Created FT entry with:   0x44c692
1769000: system.cpu.l1d.prefetcher: CONGRATS: SUCCESS in inserting new FT entry found!!
1824000: system.cpu.l1i.prefetcher: INSERTENTRY(): spatio_region:       0X98, pc:   0x44c700, physical addr:    0x4c700
1824000: system.cpu.l1i.prefetcher: Created FT entry with:   0x44c700
1824000: system.cpu.l1i.prefetcher: CONGRATS: SUCCESS in inserting new FT entry found!!
1903000: system.cpu.l1i.prefetcher: INSERTENTRY(): spatio_region:       0X98, pc:   0x44c750, physical addr:    0x4c740
1903000: system.cpu.l1i.prefetcher: Created FT entry with:   0x44c750
1903000: system.cpu.l1i.prefetcher: CONGRATS: SUCCESS in inserting new FT entry found!!
1967000: system.cpu.l1i.prefetcher: INSERTENTRY(): spatio_region:       0X98, pc:   0x44c780, physical addr:    0x4c780
1967000: system.cpu.l1i.prefetcher: Created FT entry with:   0x44c780
1967000: system.cpu.l1i.prefetcher: CONGRATS: SUCCESS in inserting new FT entry found!!
2046000: system.cpu.l1i.prefetcher: INSERTENTRY(): spatio_region:       0X98, pc:   0x44c658, physical addr:    0x4c640
2046000: system.cpu.l1i.prefetcher: Created FT entry with:   0x44c658
2046000: system.cpu.l1i.prefetcher: CONGRATS: SUCCESS in inserting new FT entry found!!
2140000: system.cpu.l1i.prefetcher: INSERTENTRY(): spatio_region:       0X98, pc:   0x44c7c0, physical addr:    0x4c7c0
2140000: system.cpu.l1i.prefetcher: Created FT entry with:   0x44c7c0
2140000: system.cpu.l1i.prefetcher: CONGRATS: SUCCESS in inserting new FT entry found!!
2239000: system.cpu.l1d.prefetcher: INSERTENTRY(): spatio_region:      0X187, pc:   0x44c4c0, physical addr:    0xc3ec0
2239000: system.cpu.l1d.prefetcher: Created FT entry with:   0x44c4c0
2239000: system.cpu.l1d.prefetcher: CONGRATS: SUCCESS in inserting new FT entry found!!
2330000: system.cpu.l1i.prefetcher: INSERTENTRY(): spatio_region:       0X99, pc:   0x44c800, physical addr:    0x4c800
2330000: system.cpu.l1i.prefetcher: Created FT entry with:   0x44c800
2330000: system.cpu.l1i.prefetcher: CONGRATS: SUCCESS in inserting new FT entry found!!
2482000: system.cpu.l1d.prefetcher: INSERTENTRY(): spatio_region:      0X187, pc:   0x44c4c0, physical addr:    0xc3f00
2482000: system.cpu.l1d.prefetcher: Created FT entry with:   0x44c4c0
2482000: system.cpu.l1d.prefetcher: CONGRATS: SUCCESS in inserting new FT entry found!!
2673000: system.cpu.l1d.prefetcher: INSERTENTRY(): spatio_region:      0X187, pc:   0x44c6d3, physical addr:    0xc3f40
2673000: system.cpu.l1d.prefetcher: Created FT entry with:   0x44c6d3
2673000: system.cpu.l1d.prefetcher: CONGRATS: SUCCESS in inserting new FT entry found!!
2877000: system.cpu.l1d.prefetcher: INSERTENTRY(): spatio_region:      0X187, pc:   0x44c6bb, physical addr:    0xc3f80
2877000: system.cpu.l1d.prefetcher: Created FT entry with:   0x44c6bb
2877000: system.cpu.l1d.prefetcher: CONGRATS: SUCCESS in inserting new FT entry found!!
2964000: system.cpu.l1i.prefetcher: INSERTENTRY(): spatio_region:       0X99, pc:   0x44c840, physical addr:    0x4c840
2964000: system.cpu.l1i.prefetcher: Created FT entry with:   0x44c840
2964000: system.cpu.l1i.prefetcher: CONGRATS: SUCCESS in inserting new FT entry found!!
3155000: system.cpu.l1i.prefetcher: INSERTENTRY(): spatio_region:        0X4, pc:   0x402200, physical addr:     0x2200
3155000: system.cpu.l1i.prefetcher: Created FT entry with:   0x402200
3155000: system.cpu.l1i.prefetcher: CONGRATS: SUCCESS in inserting new FT entry found!!
3257000: system.cpu.l1i.prefetcher: INSERTENTRY(): spatio_region:       0X9A, pc:   0x44d520, physical addr:    0x4d500
3257000: system.cpu.l1i.prefetcher: Created FT entry with:   0x44d520
3257000: system.cpu.l1i.prefetcher: CONGRATS: SUCCESS in inserting new FT entry found!!
3321000: system.cpu.l1i.prefetcher: INSERTENTRY(): spatio_region:       0X9A, pc:   0x44d540, physical addr:    0x4d540
3321000: system.cpu.l1i.prefetcher: Created FT entry with:   0x44d540
3321000: system.cpu.l1i.prefetcher: CONGRATS: SUCCESS in inserting new FT entry found!!
3396000: system.cpu.l1i.prefetcher: INSERTENTRY(): spatio_region:        0X4, pc:   0x402240, physical addr:     0x2240
3396000: system.cpu.l1i.prefetcher: Created FT entry with:   0x402240
3396000: system.cpu.l1i.prefetcher: CONGRATS: SUCCESS in inserting new FT entry found!!
3460000: system.cpu.l1i.prefetcher: INSERTENTRY(): spatio_region:       0X97, pc:   0x44bdc0, physical addr:    0x4bdc0
3460000: system.cpu.l1i.prefetcher: Created FT entry with:   0x44bdc0
3460000: system.cpu.l1i.prefetcher: CONGRATS: SUCCESS in inserting new FT entry found!!
3537000: system.cpu.l1i.prefetcher: INSERTENTRY(): spatio_region:       0X97, pc:   0x44be00, physical addr:    0x4be00
3537000: system.cpu.l1i.prefetcher: Created FT entry with:   0x44be00
3537000: system.cpu.l1i.prefetcher: CONGRATS: SUCCESS in inserting new FT entry found!!
3601000: system.cpu.l1i.prefetcher: INSERTENTRY(): spatio_region:       0X97, pc:   0x44be40, physical addr:    0x4be40
3601000: system.cpu.l1i.prefetcher: Created FT entry with:   0x44be40
3601000: system.cpu.l1i.prefetcher: CONGRATS: SUCCESS in inserting new FT entry found!!
3665000: system.cpu.l1i.prefetcher: INSERTENTRY(): spatio_region:       0X97, pc:   0x44bf0a, physical addr:    0x4bf00
3665000: system.cpu.l1i.prefetcher: Created FT entry with:   0x44bf0a
3665000: system.cpu.l1i.prefetcher: CONGRATS: SUCCESS in inserting new FT entry found!!
3729000: system.cpu.l1i.prefetcher: INSERTENTRY(): spatio_region:       0X97, pc:   0x44bf40, physical addr:    0x4bf40
3729000: system.cpu.l1i.prefetcher: Created FT entry with:   0x44bf40
3729000: system.cpu.l1i.prefetcher: CONGRATS: SUCCESS in inserting new FT entry found!!
3801000: system.cpu.l1d.prefetcher: INSERTENTRY(): spatio_region:      0X187, pc:   0x402195, physical addr:    0xc3d4c
3801000: system.cpu.l1d.prefetcher: Created FT entry with:   0x402195
3801000: system.cpu.l1d.prefetcher: CONGRATS: SUCCESS in inserting new FT entry found!!
3816000: system.cpu.l1d.prefetcher: INSERTENTRY(): spatio_region:      0X187, pc:   0x40219f, physical addr:    0xc3d50
3816000: system.cpu.l1d.prefetcher: Created FT entry with:   0x40219f
3816000: system.cpu.l1d.prefetcher: CONGRATS: SUCCESS in inserting new FT entry found!!
3828000: system.cpu.l1i.prefetcher: INSERTENTRY(): spatio_region:        0X4, pc:   0x40232d, physical addr:     0x2300
3828000: system.cpu.l1i.prefetcher: Created FT entry with:   0x40232d
3828000: system.cpu.l1i.prefetcher: CONGRATS: SUCCESS in inserting new FT entry found!!
3891000: system.cpu.l1d.prefetcher: INSERTENTRY(): spatio_region:      0X183, pc:   0x4021af, physical addr:    0xc1d8c
3891000: system.cpu.l1d.prefetcher: Created FT entry with:   0x4021af
3891000: system.cpu.l1d.prefetcher: CONGRATS: SUCCESS in inserting new FT entry found!!
3938000: system.cpu.l1i.prefetcher: INSERTENTRY(): spatio_region:        0X4, pc:   0x402340, physical addr:     0x2340
3938000: system.cpu.l1i.prefetcher: Created FT entry with:   0x402340
3938000: system.cpu.l1i.prefetcher: CONGRATS: SUCCESS in inserting new FT entry found!!
4002000: system.cpu.l1i.prefetcher: INSERTENTRY(): spatio_region:        0X5, pc:   0x402883, physical addr:     0x2880
4002000: system.cpu.l1i.prefetcher: Created FT entry with:   0x402883
4002000: system.cpu.l1i.prefetcher: CONGRATS: SUCCESS in inserting new FT entry found!!
4066000: system.cpu.l1i.prefetcher: INSERTENTRY(): spatio_region:        0X5, pc:   0x4028c0, physical addr:     0x28c0
4066000: system.cpu.l1i.prefetcher: Created FT entry with:   0x4028c0
4066000: system.cpu.l1i.prefetcher: CONGRATS: SUCCESS in inserting new FT entry found!!
4139000: system.cpu.l1i.prefetcher: INSERTENTRY(): spatio_region:        0X4, pc:   0x402280, physical addr:     0x2280
4139000: system.cpu.l1i.prefetcher: Created FT entry with:   0x402280
4139000: system.cpu.l1i.prefetcher: CONGRATS: SUCCESS in inserting new FT entry found!!
4203000: system.cpu.l1i.prefetcher: INSERTENTRY(): spatio_region:        0X3, pc:   0x401d40, physical addr:     0x1d40
4203000: system.cpu.l1i.prefetcher: Created FT entry with:   0x401d40
4203000: system.cpu.l1i.prefetcher: CONGRATS: SUCCESS in inserting new FT entry found!!
4294000: system.cpu.l1i.prefetcher: INSERTENTRY(): spatio_region:        0X3, pc:   0x401d80, physical addr:     0x1d80
4294000: system.cpu.l1i.prefetcher: Created FT entry with:   0x401d80
4294000: system.cpu.l1i.prefetcher: CONGRATS: SUCCESS in inserting new FT entry found!!
4360000: system.cpu.l1i.prefetcher: INSERTENTRY(): spatio_region:        0X3, pc:   0x401dc0, physical addr:     0x1dc0
4360000: system.cpu.l1i.prefetcher: Created FT entry with:   0x401dc0
4360000: system.cpu.l1i.prefetcher: CONGRATS: SUCCESS in inserting new FT entry found!!
4428000: system.cpu.l1i.prefetcher: INSERTENTRY(): spatio_region:        0X3, pc:   0x401e00, physical addr:     0x1e00
4428000: system.cpu.l1i.prefetcher: Created FT entry with:   0x401e00
4428000: system.cpu.l1i.prefetcher: CONGRATS: SUCCESS in inserting new FT entry found!!
4496000: system.cpu.l1i.prefetcher: INSERTENTRY(): spatio_region:        0X3, pc:   0x401e40, physical addr:     0x1e40
4496000: system.cpu.l1i.prefetcher: Created FT entry with:   0x401e40
4496000: system.cpu.l1i.prefetcher: CONGRATS: SUCCESS in inserting new FT entry found!!
4560000: system.cpu.l1i.prefetcher: INSERTENTRY(): spatio_region:        0X3, pc:   0x401f04, physical addr:     0x1f00
4560000: system.cpu.l1i.prefetcher: Created FT entry with:   0x401f04
4560000: system.cpu.l1i.prefetcher: CONGRATS: SUCCESS in inserting new FT entry found!!
4624000: system.cpu.l1i.prefetcher: INSERTENTRY(): spatio_region:        0X3, pc:   0x401f40, physical addr:     0x1f40
4624000: system.cpu.l1i.prefetcher: Created FT entry with:   0x401f40
4624000: system.cpu.l1i.prefetcher: CONGRATS: SUCCESS in inserting new FT entry found!!
4727000: system.cpu.l1i.prefetcher: INSERTENTRY(): spatio_region:        0X4, pc:   0x4022c0, physical addr:     0x22c0
4727000: system.cpu.l1i.prefetcher: Created FT entry with:   0x4022c0
4727000: system.cpu.l1i.prefetcher: CONGRATS: SUCCESS in inserting new FT entry found!!
4791000: system.cpu.l1i.prefetcher: INSERTENTRY(): spatio_region:       0X98, pc:   0x44c350, physical addr:    0x4c340
4791000: system.cpu.l1i.prefetcher: Created FT entry with:   0x44c350
4791000: system.cpu.l1i.prefetcher: CONGRATS: SUCCESS in inserting new FT entry found!!
4855000: system.cpu.l1i.prefetcher: INSERTENTRY(): spatio_region:       0X98, pc:   0x44c380, physical addr:    0x4c380
4855000: system.cpu.l1i.prefetcher: Created FT entry with:   0x44c380
4855000: system.cpu.l1i.prefetcher: CONGRATS: SUCCESS in inserting new FT entry found!!
4863000: system.cpu.l1d.prefetcher: INSERTENTRY(): spatio_region:      0X17C, pc:   0x44c36c, physical addr:    0xbe7a8
4863000: system.cpu.l1d.prefetcher: Created FT entry with:   0x44c36c
4863000: system.cpu.l1d.prefetcher: CONGRATS: SUCCESS in inserting new FT entry found!!
4925000: system.cpu.l1d.prefetcher: INSERTENTRY(): spatio_region:      0X17C, pc:   0x44c370, physical addr:    0xbe7c0
4925000: system.cpu.l1d.prefetcher: Created FT entry with:   0x44c370
4925000: system.cpu.l1d.prefetcher: CONGRATS: SUCCESS in inserting new FT entry found!!
5057000: system.cpu.l1d.prefetcher: INSERTENTRY(): spatio_region:      0X17C, pc:   0x44c36c, physical addr:    0xbe620
5057000: system.cpu.l1d.prefetcher: Created FT entry with:   0x44c36c
5057000: system.cpu.l1d.prefetcher: CONGRATS: SUCCESS in inserting new FT entry found!!
5148000: system.cpu.l1d.prefetcher: INSERTENTRY(): spatio_region:      0X17C, pc:   0x44c38c, physical addr:    0xbe640
5148000: system.cpu.l1d.prefetcher: Created FT entry with:   0x44c38c
5148000: system.cpu.l1d.prefetcher: CONGRATS: SUCCESS in inserting new FT entry found!!
5235000: system.cpu.l1d.prefetcher: INSERTENTRY(): spatio_region:      0X183, pc:   0x402265, physical addr:    0xc1dc0
5235000: system.cpu.l1d.prefetcher: Created FT entry with:   0x402265
5235000: system.cpu.l1d.prefetcher: CONGRATS: SUCCESS in inserting new FT entry found!!
5253000: system.cpu.l1d.prefetcher: INSERTENTRY(): spatio_region:      0X17D, pc:   0x44c36c, physical addr:    0xbe888
5253000: system.cpu.l1d.prefetcher: Created FT entry with:   0x44c36c
5253000: system.cpu.l1d.prefetcher: CONGRATS: SUCCESS in inserting new FT entry found!!
5402000: system.cpu.l1d.prefetcher: INSERTENTRY(): spatio_region:      0X17C, pc:   0x44c36c, physical addr:    0xbe4d0
5402000: system.cpu.l1d.prefetcher: Created FT entry with:   0x44c36c
5402000: system.cpu.l1d.prefetcher: CONGRATS: SUCCESS in inserting new FT entry found!!
5534000: system.cpu.l1i.prefetcher: INSERTENTRY(): spatio_region:        0X4, pc:   0x402380, physical addr:     0x2380
5534000: system.cpu.l1i.prefetcher: Created FT entry with:   0x402380
5534000: system.cpu.l1i.prefetcher: CONGRATS: SUCCESS in inserting new FT entry found!!
5608000: system.cpu.l1d.prefetcher: INSERTENTRY(): spatio_region:      0X17C, pc:   0x44c36c, physical addr:    0xbe770
5608000: system.cpu.l1d.prefetcher: Created FT entry with:   0x44c36c
5608000: system.cpu.l1d.prefetcher: CONGRATS: SUCCESS in inserting new FT entry found!!
5682000: system.cpu.l1d.prefetcher: INSERTENTRY(): spatio_region:      0X187, pc:   0x44c3b8, physical addr:    0xc3d80
5682000: system.cpu.l1d.prefetcher: Created FT entry with:   0x44c3b8
5682000: system.cpu.l1d.prefetcher: CONGRATS: SUCCESS in inserting new FT entry found!!
5757000: system.cpu.l1d.prefetcher: INSERTENTRY(): spatio_region:      0X187, pc:   0x44c3b8, physical addr:    0xc3d88
5757000: system.cpu.l1d.prefetcher: Created FT entry with:   0x44c3b8
5757000: system.cpu.l1d.prefetcher: CONGRATS: SUCCESS in inserting new FT entry found!!
5809000: system.cpu.l1d.prefetcher: INSERTENTRY(): spatio_region:          0, pc:   0x402301, physical addr:      0x2e8
5809000: system.cpu.l1d.prefetcher: Created FT entry with:   0x402301
5809000: system.cpu.l1d.prefetcher: CONGRATS: SUCCESS in inserting new FT entry found!!
5902000: system.cpu.l1i.prefetcher: INSERTENTRY(): spatio_region:        0X4, pc:   0x4023c0, physical addr:     0x23c0
5902000: system.cpu.l1i.prefetcher: Created FT entry with:   0x4023c0
5902000: system.cpu.l1i.prefetcher: CONGRATS: SUCCESS in inserting new FT entry found!!
6004000: system.cpu.l1i.prefetcher: INSERTENTRY(): spatio_region:       0X43, pc:   0x421930, physical addr:    0x21900
6004000: system.cpu.l1i.prefetcher: Created FT entry with:   0x421930
6004000: system.cpu.l1i.prefetcher: CONGRATS: SUCCESS in inserting new FT entry found!!
6095000: system.cpu.l1i.prefetcher: INSERTENTRY(): spatio_region:       0X43, pc:   0x421940, physical addr:    0x21940
6095000: system.cpu.l1i.prefetcher: Created FT entry with:   0x421940
6095000: system.cpu.l1i.prefetcher: CONGRATS: SUCCESS in inserting new FT entry found!!
6159000: system.cpu.l1i.prefetcher: INSERTENTRY(): spatio_region:       0X43, pc:   0x421980, physical addr:    0x21980
6159000: system.cpu.l1i.prefetcher: Created FT entry with:   0x421980
6159000: system.cpu.l1i.prefetcher: CONGRATS: SUCCESS in inserting new FT entry found!!
6232000: system.cpu.l1d.prefetcher: INSERTENTRY(): spatio_region:      0X17E, pc:   0x402308, physical addr:    0xbf0d0
6232000: system.cpu.l1d.prefetcher: Created FT entry with:   0x402308
6232000: system.cpu.l1d.prefetcher: CONGRATS: SUCCESS in inserting new FT entry found!!
6245000: system.cpu.l1d.prefetcher: Updated AGT entry with:          0
6337000: system.cpu.l1i.prefetcher: INSERTENTRY(): spatio_region:       0X43, pc:   0x421aa0, physical addr:    0x21a80
6337000: system.cpu.l1i.prefetcher: Created FT entry with:   0x421aa0
6337000: system.cpu.l1i.prefetcher: CONGRATS: SUCCESS in inserting new FT entry found!!
6428000: system.cpu.l1i.prefetcher: INSERTENTRY(): spatio_region:       0X43, pc:   0x421ac0, physical addr:    0x21ac0
6428000: system.cpu.l1i.prefetcher: Created FT entry with:   0x421ac0
6428000: system.cpu.l1i.prefetcher: CONGRATS: SUCCESS in inserting new FT entry found!!
6492000: system.cpu.l1i.prefetcher: INSERTENTRY(): spatio_region:       0X43, pc:   0x421b00, physical addr:    0x21b00
6492000: system.cpu.l1i.prefetcher: Created FT entry with:   0x421b00
6492000: system.cpu.l1i.prefetcher: CONGRATS: SUCCESS in inserting new FT entry found!!
6584000: system.cpu.l1i.prefetcher: INSERTENTRY(): spatio_region:      0X109, pc:   0x484a30, physical addr:    0x84a00
6584000: system.cpu.l1i.prefetcher: Created FT entry with:   0x484a30
6584000: system.cpu.l1i.prefetcher: CONGRATS: SUCCESS in inserting new FT entry found!!
6661000: system.cpu.l1i.prefetcher: INSERTENTRY(): spatio_region:      0X109, pc:   0x484a40, physical addr:    0x84a40
6661000: system.cpu.l1i.prefetcher: Created FT entry with:   0x484a40
6661000: system.cpu.l1i.prefetcher: CONGRATS: SUCCESS in inserting new FT entry found!!
6725000: system.cpu.l1i.prefetcher: INSERTENTRY(): spatio_region:      0X109, pc:   0x484a80, physical addr:    0x84a80
6725000: system.cpu.l1i.prefetcher: Created FT entry with:   0x484a80
6725000: system.cpu.l1i.prefetcher: CONGRATS: SUCCESS in inserting new FT entry found!!
6817000: system.cpu.l1i.prefetcher: INSERTENTRY(): spatio_region:       0X43, pc:   0x421a40, physical addr:    0x21a40
6817000: system.cpu.l1i.prefetcher: Created FT entry with:   0x421a40
6817000: system.cpu.l1i.prefetcher: CONGRATS: SUCCESS in inserting new FT entry found!!
6907000: system.cpu.l1d.prefetcher: INSERTENTRY(): spatio_region:      0X17E, pc:   0x402308, physical addr:    0xbf0b8
6907000: system.cpu.l1d.prefetcher: Created FT entry with:   0x402308
6907000: system.cpu.l1d.prefetcher: CONGRATS: SUCCESS in inserting new FT entry found!!
6908000: system.cpu.l1d.prefetcher: Updated AGT entry with:          0
7013000: system.cpu.l1i.prefetcher: INSERTENTRY(): spatio_region:       0X44, pc:   0x422510, physical addr:    0x22500
7013000: system.cpu.l1i.prefetcher: Created FT entry with:   0x422510
7013000: system.cpu.l1i.prefetcher: CONGRATS: SUCCESS in inserting new FT entry found!!
7104000: system.cpu.l1i.prefetcher: INSERTENTRY(): spatio_region:       0X44, pc:   0x422540, physical addr:    0x22540
7104000: system.cpu.l1i.prefetcher: Created FT entry with:   0x422540
7104000: system.cpu.l1i.prefetcher: CONGRATS: SUCCESS in inserting new FT entry found!!
7168000: system.cpu.l1i.prefetcher: INSERTENTRY(): spatio_region:       0X44, pc:   0x422580, physical addr:    0x22580
7168000: system.cpu.l1i.prefetcher: Created FT entry with:   0x422580
7168000: system.cpu.l1i.prefetcher: CONGRATS: SUCCESS in inserting new FT entry found!!
7236000: system.cpu.l1i.prefetcher: INSERTENTRY(): spatio_region:       0X44, pc:   0x4225c0, physical addr:    0x225c0
7236000: system.cpu.l1i.prefetcher: Created FT entry with:   0x4225c0
7236000: system.cpu.l1i.prefetcher: CONGRATS: SUCCESS in inserting new FT entry found!!
7304000: system.cpu.l1i.prefetcher: INSERTENTRY(): spatio_region:       0X44, pc:   0x422600, physical addr:    0x22600
7304000: system.cpu.l1i.prefetcher: Created FT entry with:   0x422600
7304000: system.cpu.l1i.prefetcher: CONGRATS: SUCCESS in inserting new FT entry found!!
7396000: system.cpu.l1i.prefetcher: INSERTENTRY(): spatio_region:      0X109, pc:   0x484cd0, physical addr:    0x84cc0
7396000: system.cpu.l1i.prefetcher: Created FT entry with:   0x484cd0
7396000: system.cpu.l1i.prefetcher: CONGRATS: SUCCESS in inserting new FT entry found!!
7460000: system.cpu.l1i.prefetcher: INSERTENTRY(): spatio_region:      0X109, pc:   0x484d00, physical addr:    0x84d00
7460000: system.cpu.l1i.prefetcher: Created FT entry with:   0x484d00
7460000: system.cpu.l1i.prefetcher: CONGRATS: SUCCESS in inserting new FT entry found!!
7526000: system.cpu.l1i.prefetcher: INSERTENTRY(): spatio_region:      0X109, pc:   0x484d40, physical addr:    0x84d40
7526000: system.cpu.l1i.prefetcher: Created FT entry with:   0x484d40
7526000: system.cpu.l1i.prefetcher: CONGRATS: SUCCESS in inserting new FT entry found!!
7620000: system.cpu.l1i.prefetcher: INSERTENTRY(): spatio_region:       0X43, pc:   0x4219c0, physical addr:    0x219c0
7620000: system.cpu.l1i.prefetcher: Created FT entry with:   0x4219c0
7620000: system.cpu.l1i.prefetcher: CONGRATS: SUCCESS in inserting new FT entry found!!
7711000: system.cpu.l1i.prefetcher: INSERTENTRY(): spatio_region:       0X43, pc:   0x421a00, physical addr:    0x21a00
7711000: system.cpu.l1i.prefetcher: Created FT entry with:   0x421a00
7711000: system.cpu.l1i.prefetcher: CONGRATS: SUCCESS in inserting new FT entry found!!
7785000: system.cpu.l1d.prefetcher: Updated AGT entry with:          0
7786000: system.cpu.l1d.prefetcher: Updated AGT entry with:          0
8139000: system.cpu.l1i.prefetcher: INSERTENTRY(): spatio_region:       0XE0, pc:   0x4700f0, physical addr:    0x700c0
8139000: system.cpu.l1i.prefetcher: Created FT entry with:   0x4700f0
8139000: system.cpu.l1i.prefetcher: CONGRATS: SUCCESS in inserting new FT entry found!!
8216000: system.cpu.l1i.prefetcher: INSERTENTRY(): spatio_region:       0XE0, pc:   0x470100, physical addr:    0x70100
8216000: system.cpu.l1i.prefetcher: Created FT entry with:   0x470100
8216000: system.cpu.l1i.prefetcher: CONGRATS: SUCCESS in inserting new FT entry found!!
8280000: system.cpu.l1i.prefetcher: INSERTENTRY(): spatio_region:       0XE0, pc:   0x470140, physical addr:    0x70140
8280000: system.cpu.l1i.prefetcher: Created FT entry with:   0x470140
8280000: system.cpu.l1i.prefetcher: CONGRATS: SUCCESS in inserting new FT entry found!!
8372000: system.cpu.l1i.prefetcher: INSERTENTRY(): spatio_region:       0X44, pc:   0x422470, physical addr:    0x22440
8372000: system.cpu.l1i.prefetcher: Created FT entry with:   0x422470
8372000: system.cpu.l1i.prefetcher: CONGRATS: SUCCESS in inserting new FT entry found!!
8449000: system.cpu.l1i.prefetcher: INSERTENTRY(): spatio_region:       0X44, pc:   0x422480, physical addr:    0x22480
8449000: system.cpu.l1i.prefetcher: Created FT entry with:   0x422480
8449000: system.cpu.l1i.prefetcher: CONGRATS: SUCCESS in inserting new FT entry found!!
8513000: system.cpu.l1i.prefetcher: INSERTENTRY(): spatio_region:       0X44, pc:   0x4224c0, physical addr:    0x224c0
8513000: system.cpu.l1i.prefetcher: Created FT entry with:   0x4224c0
8513000: system.cpu.l1i.prefetcher: CONGRATS: SUCCESS in inserting new FT entry found!!
8615000: system.cpu.l1d.prefetcher: Updated AGT entry with:          0
8680000: system.cpu.l1i.prefetcher: INSERTENTRY(): spatio_region:      0X109, pc:   0x484c90, physical addr:    0x84c80
8680000: system.cpu.l1i.prefetcher: Created FT entry with:   0x484c90
8680000: system.cpu.l1i.prefetcher: CONGRATS: SUCCESS in inserting new FT entry found!!
8766000: system.cpu.l1i.prefetcher: INSERTENTRY(): spatio_region:      0X109, pc:   0x484d80, physical addr:    0x84d80
8766000: system.cpu.l1i.prefetcher: Created FT entry with:   0x484d80
8766000: system.cpu.l1i.prefetcher: CONGRATS: SUCCESS in inserting new FT entry found!!
8860000: system.cpu.l1i.prefetcher: INSERTENTRY(): spatio_region:       0X44, pc:   0x422640, physical addr:    0x22640
8860000: system.cpu.l1i.prefetcher: Created FT entry with:   0x422640
8860000: system.cpu.l1i.prefetcher: CONGRATS: SUCCESS in inserting new FT entry found!!
8924000: system.cpu.l1i.prefetcher: INSERTENTRY(): spatio_region:       0X44, pc:   0x422680, physical addr:    0x22680
8924000: system.cpu.l1i.prefetcher: Created FT entry with:   0x422680
8924000: system.cpu.l1i.prefetcher: CONGRATS: SUCCESS in inserting new FT entry found!!
8992000: system.cpu.l1i.prefetcher: INSERTENTRY(): spatio_region:       0X44, pc:   0x4226c0, physical addr:    0x226c0
8992000: system.cpu.l1i.prefetcher: Created FT entry with:   0x4226c0
8992000: system.cpu.l1i.prefetcher: CONGRATS: SUCCESS in inserting new FT entry found!!
9084000: system.cpu.l1i.prefetcher: INSERTENTRY(): spatio_region:       0X44, pc:   0x422340, physical addr:    0x22340
9084000: system.cpu.l1i.prefetcher: Created FT entry with:   0x422340
9084000: system.cpu.l1i.prefetcher: CONGRATS: SUCCESS in inserting new FT entry found!!
9148000: system.cpu.l1i.prefetcher: INSERTENTRY(): spatio_region:       0X44, pc:   0x422380, physical addr:    0x22380
9148000: system.cpu.l1i.prefetcher: Created FT entry with:   0x422380
9148000: system.cpu.l1i.prefetcher: CONGRATS: SUCCESS in inserting new FT entry found!!
9212000: system.cpu.l1i.prefetcher: INSERTENTRY(): spatio_region:       0X44, pc:   0x4223c0, physical addr:    0x223c0
9212000: system.cpu.l1i.prefetcher: Created FT entry with:   0x4223c0
9212000: system.cpu.l1i.prefetcher: CONGRATS: SUCCESS in inserting new FT entry found!!
9285000: system.cpu.l1d.prefetcher: INSERTENTRY(): spatio_region:      0X17E, pc:   0x402308, physical addr:    0xbf078
9285000: system.cpu.l1d.prefetcher: Created FT entry with:   0x402308
9285000: system.cpu.l1d.prefetcher: CONGRATS: SUCCESS in inserting new FT entry found!!
9286000: system.cpu.l1d.prefetcher: Updated AGT entry with:          0
9387000: system.cpu.l1i.prefetcher: INSERTENTRY(): spatio_region:       0X43, pc:   0x421b40, physical addr:    0x21b40
9387000: system.cpu.l1i.prefetcher: Created FT entry with:   0x421b40
9387000: system.cpu.l1i.prefetcher: CONGRATS: SUCCESS in inserting new FT entry found!!
9482000: system.cpu.l1i.prefetcher: INSERTENTRY(): spatio_region:       0X43, pc:   0x421b80, physical addr:    0x21b80
9482000: system.cpu.l1i.prefetcher: Created FT entry with:   0x421b80
9482000: system.cpu.l1i.prefetcher: CONGRATS: SUCCESS in inserting new FT entry found!!
9574000: system.cpu.l1i.prefetcher: INSERTENTRY(): spatio_region:       0X44, pc:   0x422320, physical addr:    0x22300
9574000: system.cpu.l1i.prefetcher: Created FT entry with:   0x422320
9574000: system.cpu.l1i.prefetcher: CONGRATS: SUCCESS in inserting new FT entry found!!
9652000: system.cpu.l1i.prefetcher: INSERTENTRY(): spatio_region:       0X44, pc:   0x422400, physical addr:    0x22400
9652000: system.cpu.l1i.prefetcher: Created FT entry with:   0x422400
9652000: system.cpu.l1i.prefetcher: CONGRATS: SUCCESS in inserting new FT entry found!!
9744000: system.cpu.l1i.prefetcher: INSERTENTRY(): spatio_region:       0XDC, pc:   0x46e190, physical addr:    0x6e180
9744000: system.cpu.l1i.prefetcher: Created FT entry with:   0x46e190
9744000: system.cpu.l1i.prefetcher: CONGRATS: SUCCESS in inserting new FT entry found!!
9821000: system.cpu.l1i.prefetcher: INSERTENTRY(): spatio_region:       0XDC, pc:   0x46e1c0, physical addr:    0x6e1c0
9821000: system.cpu.l1i.prefetcher: Created FT entry with:   0x46e1c0
9821000: system.cpu.l1i.prefetcher: CONGRATS: SUCCESS in inserting new FT entry found!!
9885000: system.cpu.l1i.prefetcher: INSERTENTRY(): spatio_region:       0XDC, pc:   0x46e200, physical addr:    0x6e200
9885000: system.cpu.l1i.prefetcher: Created FT entry with:   0x46e200
9885000: system.cpu.l1i.prefetcher: CONGRATS: SUCCESS in inserting new FT entry found!!
9959000: system.cpu.l1d.prefetcher: Updated AGT entry with:          0
9960000: system.cpu.l1d.prefetcher: Updated AGT entry with:          0
10064000: system.cpu.l1i.prefetcher: INSERTENTRY(): spatio_region:       0X44, pc:   0x422780, physical addr:    0x22780
10064000: system.cpu.l1i.prefetcher: Created FT entry with:   0x422780
10064000: system.cpu.l1i.prefetcher: CONGRATS: SUCCESS in inserting new FT entry found!!
10128000: system.cpu.l1i.prefetcher: INSERTENTRY(): spatio_region:       0X44, pc:   0x4227c0, physical addr:    0x227c0
10128000: system.cpu.l1i.prefetcher: Created FT entry with:   0x4227c0
10128000: system.cpu.l1i.prefetcher: CONGRATS: SUCCESS in inserting new FT entry found!!
10274000: system.cpu.l1d.prefetcher: Updated AGT entry with:          0
10339000: system.cpu.l1i.prefetcher: INSERTENTRY(): spatio_region:       0XDC, pc:   0x46e0d0, physical addr:    0x6e0c0
10339000: system.cpu.l1i.prefetcher: Created FT entry with:   0x46e0d0
10339000: system.cpu.l1i.prefetcher: CONGRATS: SUCCESS in inserting new FT entry found!!
10403000: system.cpu.l1i.prefetcher: INSERTENTRY(): spatio_region:       0XDC, pc:   0x46e100, physical addr:    0x6e100
10403000: system.cpu.l1i.prefetcher: Created FT entry with:   0x46e100
10403000: system.cpu.l1i.prefetcher: CONGRATS: SUCCESS in inserting new FT entry found!!
10467000: system.cpu.l1i.prefetcher: INSERTENTRY(): spatio_region:       0XDC, pc:   0x46e140, physical addr:    0x6e140
10467000: system.cpu.l1i.prefetcher: Created FT entry with:   0x46e140
10467000: system.cpu.l1i.prefetcher: CONGRATS: SUCCESS in inserting new FT entry found!!
10559000: system.cpu.l1i.prefetcher: INSERTENTRY(): spatio_region:       0XDF, pc:   0x46f9e0, physical addr:    0x6f9c0
10559000: system.cpu.l1i.prefetcher: Created FT entry with:   0x46f9e0
10559000: system.cpu.l1i.prefetcher: CONGRATS: SUCCESS in inserting new FT entry found!!
10623000: system.cpu.l1i.prefetcher: INSERTENTRY(): spatio_region:       0XDF, pc:   0x46fa00, physical addr:    0x6fa00
10623000: system.cpu.l1i.prefetcher: Created FT entry with:   0x46fa00
10623000: system.cpu.l1i.prefetcher: CONGRATS: SUCCESS in inserting new FT entry found!!
10687000: system.cpu.l1i.prefetcher: INSERTENTRY(): spatio_region:       0XDF, pc:   0x46fa40, physical addr:    0x6fa40
10687000: system.cpu.l1i.prefetcher: Created FT entry with:   0x46fa40
10687000: system.cpu.l1i.prefetcher: CONGRATS: SUCCESS in inserting new FT entry found!!
10784000: system.cpu.l1i.prefetcher: INSERTENTRY(): spatio_region:       0X44, pc:   0x422700, physical addr:    0x22700
10784000: system.cpu.l1i.prefetcher: Created FT entry with:   0x422700
10784000: system.cpu.l1i.prefetcher: CONGRATS: SUCCESS in inserting new FT entry found!!
10852000: system.cpu.l1i.prefetcher: INSERTENTRY(): spatio_region:       0X44, pc:   0x422740, physical addr:    0x22740
10852000: system.cpu.l1i.prefetcher: Created FT entry with:   0x422740
10852000: system.cpu.l1i.prefetcher: CONGRATS: SUCCESS in inserting new FT entry found!!
10927000: system.cpu.l1i.prefetcher: INSERTENTRY(): spatio_region:       0X45, pc:   0x422800, physical addr:    0x22800
10927000: system.cpu.l1i.prefetcher: Created FT entry with:   0x422800
10927000: system.cpu.l1i.prefetcher: CONGRATS: SUCCESS in inserting new FT entry found!!
11000000: system.cpu.l1d.prefetcher: INSERTENTRY(): spatio_region:      0X17E, pc:   0x402308, physical addr:    0xbf038
11000000: system.cpu.l1d.prefetcher: Created FT entry with:   0x402308
11000000: system.cpu.l1d.prefetcher: CONGRATS: SUCCESS in inserting new FT entry found!!
11001000: system.cpu.l1d.prefetcher: Updated AGT entry with:          0
11100000: system.cpu.l1i.prefetcher: INSERTENTRY(): spatio_region:       0X45, pc:   0x422840, physical addr:    0x22840
11100000: system.cpu.l1i.prefetcher: Created FT entry with:   0x422840
11100000: system.cpu.l1i.prefetcher: CONGRATS: SUCCESS in inserting new FT entry found!!
11298000: system.cpu.l1i.prefetcher: INSERTENTRY(): spatio_region:       0XDC, pc:   0x46e090, physical addr:    0x6e080
11298000: system.cpu.l1i.prefetcher: Created FT entry with:   0x46e090
11298000: system.cpu.l1i.prefetcher: CONGRATS: SUCCESS in inserting new FT entry found!!
11391000: system.cpu.l1d.prefetcher: Updated AGT entry with:          0
11392000: system.cpu.l1d.prefetcher: Updated AGT entry with:          0
11518000: system.cpu.l1i.prefetcher: INSERTENTRY(): spatio_region:        0X4, pc:   0x40243b, physical addr:     0x2400
11518000: system.cpu.l1i.prefetcher: Created FT entry with:   0x40243b
11518000: system.cpu.l1i.prefetcher: CONGRATS: SUCCESS in inserting new FT entry found!!
11609000: system.cpu.l1i.prefetcher: INSERTENTRY(): spatio_region:        0X4, pc:   0x402440, physical addr:     0x2440
11609000: system.cpu.l1i.prefetcher: Created FT entry with:   0x402440
11609000: system.cpu.l1i.prefetcher: CONGRATS: SUCCESS in inserting new FT entry found!!
11673000: system.cpu.l1i.prefetcher: INSERTENTRY(): spatio_region:        0X5, pc:   0x402a90, physical addr:     0x2a80
11673000: system.cpu.l1i.prefetcher: Created FT entry with:   0x402a90
11673000: system.cpu.l1i.prefetcher: CONGRATS: SUCCESS in inserting new FT entry found!!
11737000: system.cpu.l1i.prefetcher: INSERTENTRY(): spatio_region:        0X5, pc:   0x402ac0, physical addr:     0x2ac0
11737000: system.cpu.l1i.prefetcher: Created FT entry with:   0x402ac0
11737000: system.cpu.l1i.prefetcher: CONGRATS: SUCCESS in inserting new FT entry found!!
11762000: system.cpu.l1d.prefetcher: INSERTENTRY(): spatio_region:      0X180, pc:   0x402aa9, physical addr:    0xc0180
11762000: system.cpu.l1d.prefetcher: Created FT entry with:   0x402aa9
11762000: system.cpu.l1d.prefetcher: CONGRATS: SUCCESS in inserting new FT entry found!!
11801000: system.cpu.l1i.prefetcher: INSERTENTRY(): spatio_region:        0X5, pc:   0x402b00, physical addr:     0x2b00
11801000: system.cpu.l1i.prefetcher: Created FT entry with:   0x402b00
11801000: system.cpu.l1i.prefetcher: CONGRATS: SUCCESS in inserting new FT entry found!!
11868000: system.cpu.l1i.prefetcher: INSERTENTRY(): spatio_region:        0X5, pc:   0x402b40, physical addr:     0x2b40
11868000: system.cpu.l1i.prefetcher: Created FT entry with:   0x402b40
11868000: system.cpu.l1i.prefetcher: CONGRATS: SUCCESS in inserting new FT entry found!!
11869000: system.cpu.l1d.prefetcher: Updated AGT entry with:          0
11932000: system.cpu.l1i.prefetcher: INSERTENTRY(): spatio_region:        0X5, pc:   0x402b80, physical addr:     0x2b80
11932000: system.cpu.l1i.prefetcher: Created FT entry with:   0x402b80
11932000: system.cpu.l1i.prefetcher: CONGRATS: SUCCESS in inserting new FT entry found!!
12008000: system.cpu.l1d.prefetcher: Updated AGT entry with:          0
12009000: system.cpu.l1d.prefetcher: Updated AGT entry with:          0
12079000: system.cpu.l1d.prefetcher: Updated AGT entry with:          0
12080000: system.cpu.l1d.prefetcher: Updated AGT entry with:          0
12150000: system.cpu.l1d.prefetcher: Updated AGT entry with:          0
12151000: system.cpu.l1d.prefetcher: Updated AGT entry with:          0
12221000: system.cpu.l1d.prefetcher: Updated AGT entry with:          0
12222000: system.cpu.l1d.prefetcher: Updated AGT entry with:          0
12292000: system.cpu.l1d.prefetcher: Updated AGT entry with:          0
12293000: system.cpu.l1d.prefetcher: Updated AGT entry with:          0
12363000: system.cpu.l1d.prefetcher: Updated AGT entry with:          0
12430000: system.cpu.l1d.prefetcher: INSERTENTRY(): spatio_region:      0X180, pc:   0x402b14, physical addr:    0xc0220
12430000: system.cpu.l1d.prefetcher: Created FT entry with:   0x402b14
12430000: system.cpu.l1d.prefetcher: CONGRATS: SUCCESS in inserting new FT entry found!!
12520000: system.cpu.l1i.prefetcher: INSERTENTRY(): spatio_region:        0X5, pc:   0x402bc0, physical addr:     0x2bc0
12520000: system.cpu.l1i.prefetcher: Created FT entry with:   0x402bc0
12520000: system.cpu.l1i.prefetcher: CONGRATS: SUCCESS in inserting new FT entry found!!
12594000: system.cpu.l1i.prefetcher: INSERTENTRY(): spatio_region:        0X5, pc:   0x402c00, physical addr:     0x2c00
12594000: system.cpu.l1i.prefetcher: Created FT entry with:   0x402c00
12594000: system.cpu.l1i.prefetcher: CONGRATS: SUCCESS in inserting new FT entry found!!
12658000: system.cpu.l1i.prefetcher: INSERTENTRY(): spatio_region:       0X92, pc:   0x449200, physical addr:    0x49200
12658000: system.cpu.l1i.prefetcher: Created FT entry with:   0x449200
12658000: system.cpu.l1i.prefetcher: CONGRATS: SUCCESS in inserting new FT entry found!!
12735000: system.cpu.l1i.prefetcher: INSERTENTRY(): spatio_region:       0X92, pc:   0x449240, physical addr:    0x49240
12735000: system.cpu.l1i.prefetcher: Created FT entry with:   0x449240
12735000: system.cpu.l1i.prefetcher: CONGRATS: SUCCESS in inserting new FT entry found!!
12746000: system.cpu.l1d.prefetcher: INSERTENTRY(): spatio_region:      0X183, pc:   0x44920e, physical addr:    0xc1f38
12746000: system.cpu.l1d.prefetcher: Created FT entry with:   0x44920e
12746000: system.cpu.l1d.prefetcher: CONGRATS: SUCCESS in inserting new FT entry found!!
12799000: system.cpu.l1i.prefetcher: INSERTENTRY(): spatio_region:       0X92, pc:   0x449280, physical addr:    0x49280
12799000: system.cpu.l1i.prefetcher: Created FT entry with:   0x449280
12799000: system.cpu.l1i.prefetcher: CONGRATS: SUCCESS in inserting new FT entry found!!
12867000: system.cpu.l1i.prefetcher: INSERTENTRY(): spatio_region:       0X92, pc:   0x4492c0, physical addr:    0x492c0
12867000: system.cpu.l1i.prefetcher: Created FT entry with:   0x4492c0
12867000: system.cpu.l1i.prefetcher: CONGRATS: SUCCESS in inserting new FT entry found!!
12931000: system.cpu.l1i.prefetcher: INSERTENTRY(): spatio_region:       0XE2, pc:   0x471500, physical addr:    0x71500
12931000: system.cpu.l1i.prefetcher: Created FT entry with:   0x471500
12931000: system.cpu.l1i.prefetcher: CONGRATS: SUCCESS in inserting new FT entry found!!
12995000: system.cpu.l1i.prefetcher: INSERTENTRY(): spatio_region:       0XE2, pc:   0x471540, physical addr:    0x71540
12995000: system.cpu.l1i.prefetcher: Created FT entry with:   0x471540
12995000: system.cpu.l1i.prefetcher: CONGRATS: SUCCESS in inserting new FT entry found!!
13064000: system.cpu.l1i.prefetcher: INSERTENTRY(): spatio_region:       0XE2, pc:   0x471580, physical addr:    0x71580
13064000: system.cpu.l1i.prefetcher: Created FT entry with:   0x471580
13064000: system.cpu.l1i.prefetcher: CONGRATS: SUCCESS in inserting new FT entry found!!
13140000: system.cpu.l1i.prefetcher: INSERTENTRY(): spatio_region:       0X92, pc:   0x449300, physical addr:    0x49300
13140000: system.cpu.l1i.prefetcher: Created FT entry with:   0x449300
13140000: system.cpu.l1i.prefetcher: CONGRATS: SUCCESS in inserting new FT entry found!!
13257000: system.cpu.l1i.prefetcher: INSERTENTRY(): spatio_region:       0XE2, pc:   0x4715c0, physical addr:    0x715c0
13257000: system.cpu.l1i.prefetcher: Created FT entry with:   0x4715c0
13257000: system.cpu.l1i.prefetcher: CONGRATS: SUCCESS in inserting new FT entry found!!
13332000: system.cpu.l1i.prefetcher: INSERTENTRY(): spatio_region:       0X92, pc:   0x449340, physical addr:    0x49340
13332000: system.cpu.l1i.prefetcher: Created FT entry with:   0x449340
13332000: system.cpu.l1i.prefetcher: CONGRATS: SUCCESS in inserting new FT entry found!!
13405000: system.cpu.l1d.prefetcher: INSERTENTRY(): spatio_region:      0X184, pc:   0x402b50, physical addr:    0xc2320
13405000: system.cpu.l1d.prefetcher: Created FT entry with:   0x402b50
13405000: system.cpu.l1d.prefetcher: CONGRATS: SUCCESS in inserting new FT entry found!!
13459000: system.cpu.l1i.prefetcher: INSERTENTRY(): spatio_region:        0X5, pc:   0x402c40, physical addr:     0x2c40
13459000: system.cpu.l1i.prefetcher: Created FT entry with:   0x402c40
13459000: system.cpu.l1i.prefetcher: CONGRATS: SUCCESS in inserting new FT entry found!!
13486000: system.cpu.l1d.prefetcher: INSERTENTRY(): spatio_region:      0X180, pc:   0x402ba2, physical addr:    0xc0670
13486000: system.cpu.l1d.prefetcher: Created FT entry with:   0x402ba2
13486000: system.cpu.l1d.prefetcher: CONGRATS: SUCCESS in inserting new FT entry found!!
13494000: system.cpu.l1d.prefetcher: Updated AGT entry with:          0
13550000: system.cpu.l1i.prefetcher: INSERTENTRY(): spatio_region:        0X2, pc:   0x401060, physical addr:     0x1040
13550000: system.cpu.l1i.prefetcher: Created FT entry with:   0x401060
13550000: system.cpu.l1i.prefetcher: CONGRATS: SUCCESS in inserting new FT entry found!!
13551000: system.cpu.l1d.prefetcher: Updated AGT entry with:          0
13641000: system.cpu.l1i.prefetcher: INSERTENTRY(): spatio_region:        0X2, pc:   0x401080, physical addr:     0x1080
13641000: system.cpu.l1i.prefetcher: Created FT entry with:   0x401080
13641000: system.cpu.l1i.prefetcher: CONGRATS: SUCCESS in inserting new FT entry found!!
13705000: system.cpu.l1i.prefetcher: INSERTENTRY(): spatio_region:       0X8B, pc:   0x445a10, physical addr:    0x45a00
13705000: system.cpu.l1i.prefetcher: Created FT entry with:   0x445a10
13705000: system.cpu.l1i.prefetcher: CONGRATS: SUCCESS in inserting new FT entry found!!
13796000: system.cpu.l1i.prefetcher: INSERTENTRY(): spatio_region:       0X8B, pc:   0x445a40, physical addr:    0x45a40
13796000: system.cpu.l1i.prefetcher: Created FT entry with:   0x445a40
13796000: system.cpu.l1i.prefetcher: CONGRATS: SUCCESS in inserting new FT entry found!!
13805000: system.cpu.l1d.prefetcher: INSERTENTRY(): spatio_region:      0X178, pc:   0x445a2b, physical addr:    0xbc0c0
13805000: system.cpu.l1d.prefetcher: Created FT entry with:   0x445a2b
13805000: system.cpu.l1d.prefetcher: CONGRATS: SUCCESS in inserting new FT entry found!!
13806000: system.cpu.l1d.prefetcher: Updated AGT entry with:          0
13860000: system.cpu.l1i.prefetcher: INSERTENTRY(): spatio_region:       0X8B, pc:   0x445a80, physical addr:    0x45a80
13860000: system.cpu.l1i.prefetcher: Created FT entry with:   0x445a80
13860000: system.cpu.l1i.prefetcher: CONGRATS: SUCCESS in inserting new FT entry found!!
13930000: system.cpu.l1d.prefetcher: INSERTENTRY(): spatio_region:      0X18B, pc:   0x445a33, physical addr:    0xc5820
13930000: system.cpu.l1d.prefetcher: Created FT entry with:   0x445a33
13930000: system.cpu.l1d.prefetcher: CONGRATS: SUCCESS in inserting new FT entry found!!
13931000: system.cpu.l1d.prefetcher: INSERTENTRY(): spatio_region:      0X18B, pc:   0x445a33, physical addr:    0xc5828
13931000: system.cpu.l1d.prefetcher: Created FT entry with:   0x445a33
13931000: system.cpu.l1d.prefetcher: CONGRATS: SUCCESS in inserting new FT entry found!!
13931000: system.cpu.l1i.prefetcher: INSERTENTRY(): spatio_region:       0X8B, pc:   0x445ac0, physical addr:    0x45ac0
13931000: system.cpu.l1i.prefetcher: Created FT entry with:   0x445ac0
13931000: system.cpu.l1i.prefetcher: CONGRATS: SUCCESS in inserting new FT entry found!!
14076000: system.cpu.l1i.prefetcher: INSERTENTRY(): spatio_region:        0X5, pc:   0x402c80, physical addr:     0x2c80
14076000: system.cpu.l1i.prefetcher: Created FT entry with:   0x402c80
14076000: system.cpu.l1i.prefetcher: CONGRATS: SUCCESS in inserting new FT entry found!!
14077000: system.cpu.l1d.prefetcher: INSERTENTRY(): spatio_region:      0X18B, pc:   0x402bd5, physical addr:    0xc5888
14077000: system.cpu.l1d.prefetcher: Created FT entry with:   0x402bd5
14077000: system.cpu.l1d.prefetcher: CONGRATS: SUCCESS in inserting new FT entry found!!
14080000: system.cpu.l1d.prefetcher: Updated AGT entry with:          0
14175000: system.cpu.l1i.prefetcher: INSERTENTRY(): spatio_region:        0X5, pc:   0x402cc0, physical addr:     0x2cc0
14175000: system.cpu.l1i.prefetcher: Created FT entry with:   0x402cc0
14175000: system.cpu.l1i.prefetcher: CONGRATS: SUCCESS in inserting new FT entry found!!
14253000: system.cpu.l1d.prefetcher: Updated AGT entry with:          0
14262000: system.cpu.l1d.prefetcher: INSERTENTRY(): spatio_region:      0X182, pc:   0x402c3f, physical addr:    0xc12b8
14262000: system.cpu.l1d.prefetcher: Created FT entry with:   0x402c3f
14262000: system.cpu.l1d.prefetcher: CONGRATS: SUCCESS in inserting new FT entry found!!
14267000: system.cpu.l1i.prefetcher: INSERTENTRY(): spatio_region:        0X5, pc:   0x402d00, physical addr:     0x2d00
14267000: system.cpu.l1i.prefetcher: Created FT entry with:   0x402d00
14267000: system.cpu.l1i.prefetcher: CONGRATS: SUCCESS in inserting new FT entry found!!
14346000: system.cpu.l1d.prefetcher: INSERTENTRY(): spatio_region:      0X182, pc:   0x402c65, physical addr:    0xc1290
14346000: system.cpu.l1d.prefetcher: Created FT entry with:   0x402c65
14346000: system.cpu.l1d.prefetcher: CONGRATS: SUCCESS in inserting new FT entry found!!
14392000: system.cpu.l1i.prefetcher: INSERTENTRY(): spatio_region:        0X4, pc:   0x402480, physical addr:     0x2480
14392000: system.cpu.l1i.prefetcher: Created FT entry with:   0x402480
14392000: system.cpu.l1i.prefetcher: CONGRATS: SUCCESS in inserting new FT entry found!!
14400000: system.cpu.l1d.prefetcher: Updated AGT entry with:          0
14456000: system.cpu.l1i.prefetcher: INSERTENTRY(): spatio_region:        0X4, pc:   0x4026be, physical addr:     0x2680
14456000: system.cpu.l1i.prefetcher: Created FT entry with:   0x4026be
14456000: system.cpu.l1i.prefetcher: CONGRATS: SUCCESS in inserting new FT entry found!!
14520000: system.cpu.l1i.prefetcher: INSERTENTRY(): spatio_region:        0X4, pc:   0x4026c0, physical addr:     0x26c0
14520000: system.cpu.l1i.prefetcher: Created FT entry with:   0x4026c0
14520000: system.cpu.l1i.prefetcher: CONGRATS: SUCCESS in inserting new FT entry found!!
14584000: system.cpu.l1i.prefetcher: INSERTENTRY(): spatio_region:        0X4, pc:   0x402700, physical addr:     0x2700
14584000: system.cpu.l1i.prefetcher: Created FT entry with:   0x402700
14584000: system.cpu.l1i.prefetcher: CONGRATS: SUCCESS in inserting new FT entry found!!
14648000: system.cpu.l1i.prefetcher: INSERTENTRY(): spatio_region:       0X9C, pc:   0x44e2e0, physical addr:    0x4e2c0
14648000: system.cpu.l1i.prefetcher: Created FT entry with:   0x44e2e0
14648000: system.cpu.l1i.prefetcher: CONGRATS: SUCCESS in inserting new FT entry found!!
14739000: system.cpu.l1i.prefetcher: INSERTENTRY(): spatio_region:       0X9C, pc:   0x44e300, physical addr:    0x4e300
14739000: system.cpu.l1i.prefetcher: Created FT entry with:   0x44e300
14739000: system.cpu.l1i.prefetcher: CONGRATS: SUCCESS in inserting new FT entry found!!
14755000: system.cpu.l1d.prefetcher: INSERTENTRY(): spatio_region:      0X187, pc:   0x44e2f4, physical addr:    0xc3b28
14755000: system.cpu.l1d.prefetcher: Created FT entry with:   0x44e2f4
14755000: system.cpu.l1d.prefetcher: CONGRATS: SUCCESS in inserting new FT entry found!!
14803000: system.cpu.l1i.prefetcher: INSERTENTRY(): spatio_region:       0XE2, pc:   0x4712b0, physical addr:    0x71280
14803000: system.cpu.l1i.prefetcher: Created FT entry with:   0x4712b0
14803000: system.cpu.l1i.prefetcher: CONGRATS: SUCCESS in inserting new FT entry found!!
14867000: system.cpu.l1i.prefetcher: INSERTENTRY(): spatio_region:       0XE2, pc:   0x4712c0, physical addr:    0x712c0
14867000: system.cpu.l1i.prefetcher: Created FT entry with:   0x4712c0
14867000: system.cpu.l1i.prefetcher: CONGRATS: SUCCESS in inserting new FT entry found!!
14935000: system.cpu.l1i.prefetcher: INSERTENTRY(): spatio_region:       0XE2, pc:   0x471300, physical addr:    0x71300
14935000: system.cpu.l1i.prefetcher: Created FT entry with:   0x471300
14935000: system.cpu.l1i.prefetcher: CONGRATS: SUCCESS in inserting new FT entry found!!
15003000: system.cpu.l1i.prefetcher: INSERTENTRY(): spatio_region:       0X9C, pc:   0x44e340, physical addr:    0x4e340
15003000: system.cpu.l1i.prefetcher: Created FT entry with:   0x44e340
15003000: system.cpu.l1i.prefetcher: CONGRATS: SUCCESS in inserting new FT entry found!!
15009000: system.cpu.l1d.prefetcher: Updated AGT entry with:          0
15067000: system.cpu.l1i.prefetcher: INSERTENTRY(): spatio_region:       0X9C, pc:   0x44e380, physical addr:    0x4e380
15067000: system.cpu.l1i.prefetcher: Created FT entry with:   0x44e380
15067000: system.cpu.l1i.prefetcher: CONGRATS: SUCCESS in inserting new FT entry found!!
15137000: system.cpu.l1i.prefetcher: INSERTENTRY(): spatio_region:       0X9C, pc:   0x44e3c0, physical addr:    0x4e3c0
15137000: system.cpu.l1i.prefetcher: Created FT entry with:   0x44e3c0
15137000: system.cpu.l1i.prefetcher: CONGRATS: SUCCESS in inserting new FT entry found!!
15310000: system.cpu.l1i.prefetcher: INSERTENTRY(): spatio_region:       0X9C, pc:   0x44e400, physical addr:    0x4e400
15310000: system.cpu.l1i.prefetcher: Created FT entry with:   0x44e400
15310000: system.cpu.l1i.prefetcher: CONGRATS: SUCCESS in inserting new FT entry found!!
15378000: system.cpu.l1i.prefetcher: INSERTENTRY(): spatio_region:        0X4, pc:   0x402740, physical addr:     0x2740
15378000: system.cpu.l1i.prefetcher: Created FT entry with:   0x402740
15378000: system.cpu.l1i.prefetcher: CONGRATS: SUCCESS in inserting new FT entry found!!
15473000: system.cpu.l1i.prefetcher: INSERTENTRY(): spatio_region:        0X4, pc:   0x4024c0, physical addr:     0x24c0
15473000: system.cpu.l1i.prefetcher: Created FT entry with:   0x4024c0
15473000: system.cpu.l1i.prefetcher: CONGRATS: SUCCESS in inserting new FT entry found!!
15476000: system.cpu.l1d.prefetcher: INSERTENTRY(): spatio_region:      0X17D, pc:   0x402470, physical addr:    0xbef80
15476000: system.cpu.l1d.prefetcher: Created FT entry with:   0x402470
15476000: system.cpu.l1d.prefetcher: CONGRATS: SUCCESS in inserting new FT entry found!!
15537000: system.cpu.l1i.prefetcher: INSERTENTRY(): spatio_region:        0X4, pc:   0x402500, physical addr:     0x2500
15537000: system.cpu.l1i.prefetcher: Created FT entry with:   0x402500
15537000: system.cpu.l1i.prefetcher: CONGRATS: SUCCESS in inserting new FT entry found!!
15619000: system.cpu.l1i.prefetcher: INSERTENTRY(): spatio_region:        0X4, pc:   0x402540, physical addr:     0x2540
15619000: system.cpu.l1i.prefetcher: Created FT entry with:   0x402540
15619000: system.cpu.l1i.prefetcher: CONGRATS: SUCCESS in inserting new FT entry found!!
15932000: system.cpu.l1i.prefetcher: INSERTENTRY(): spatio_region:       0X9C, pc:   0x44e440, physical addr:    0x4e440
15932000: system.cpu.l1i.prefetcher: Created FT entry with:   0x44e440
15932000: system.cpu.l1i.prefetcher: CONGRATS: SUCCESS in inserting new FT entry found!!
16011000: system.cpu.l1i.prefetcher: INSERTENTRY(): spatio_region:       0X9C, pc:   0x44e480, physical addr:    0x4e480
16011000: system.cpu.l1i.prefetcher: Created FT entry with:   0x44e480
16011000: system.cpu.l1i.prefetcher: CONGRATS: SUCCESS in inserting new FT entry found!!
16016000: system.cpu.l1d.prefetcher: INSERTENTRY(): spatio_region:      0X181, pc:   0x44e450, physical addr:    0xc0a68
16016000: system.cpu.l1d.prefetcher: Created FT entry with:   0x44e450
16016000: system.cpu.l1d.prefetcher: CONGRATS: SUCCESS in inserting new FT entry found!!
16075000: system.cpu.l1i.prefetcher: INSERTENTRY(): spatio_region:       0X9C, pc:   0x44e4c0, physical addr:    0x4e4c0
16075000: system.cpu.l1i.prefetcher: Created FT entry with:   0x44e4c0
16075000: system.cpu.l1i.prefetcher: CONGRATS: SUCCESS in inserting new FT entry found!!
16170000: system.cpu.l1i.prefetcher: INSERTENTRY(): spatio_region:       0X99, pc:   0x44c880, physical addr:    0x4c880
16170000: system.cpu.l1i.prefetcher: Created FT entry with:   0x44c880
16170000: system.cpu.l1i.prefetcher: CONGRATS: SUCCESS in inserting new FT entry found!!
16184000: system.cpu.l1d.prefetcher: Updated AGT entry with:          0
16247000: system.cpu.l1i.prefetcher: INSERTENTRY(): spatio_region:       0XF7, pc:   0x47bbc0, physical addr:    0x7bbc0
16247000: system.cpu.l1i.prefetcher: Created FT entry with:   0x47bbc0
16247000: system.cpu.l1i.prefetcher: CONGRATS: SUCCESS in inserting new FT entry found!!
16324000: system.cpu.l1i.prefetcher: INSERTENTRY(): spatio_region:       0XF7, pc:   0x47bc00, physical addr:    0x7bc00
16324000: system.cpu.l1i.prefetcher: Created FT entry with:   0x47bc00
16324000: system.cpu.l1i.prefetcher: CONGRATS: SUCCESS in inserting new FT entry found!!
16393000: system.cpu.l1d.prefetcher: INSERTENTRY(): spatio_region:      0X18D, pc:   0x47bbd1, physical addr:    0xc6c58
16393000: system.cpu.l1d.prefetcher: Created FT entry with:   0x47bbd1
16393000: system.cpu.l1d.prefetcher: CONGRATS: SUCCESS in inserting new FT entry found!!
16393000: system.cpu.l1i.prefetcher: INSERTENTRY(): spatio_region:       0XF7, pc:   0x47bc40, physical addr:    0x7bc40
16393000: system.cpu.l1i.prefetcher: Created FT entry with:   0x47bc40
16393000: system.cpu.l1i.prefetcher: CONGRATS: SUCCESS in inserting new FT entry found!!
16471000: system.cpu.l1i.prefetcher: INSERTENTRY(): spatio_region:       0XF7, pc:   0x47bc80, physical addr:    0x7bc80
16471000: system.cpu.l1i.prefetcher: Created FT entry with:   0x47bc80
16471000: system.cpu.l1i.prefetcher: CONGRATS: SUCCESS in inserting new FT entry found!!
16559000: system.cpu.l1i.prefetcher: INSERTENTRY(): spatio_region:       0XF7, pc:   0x47bcc0, physical addr:    0x7bcc0
16559000: system.cpu.l1i.prefetcher: Created FT entry with:   0x47bcc0
16559000: system.cpu.l1i.prefetcher: CONGRATS: SUCCESS in inserting new FT entry found!!
16645000: system.cpu.l1d.prefetcher: Updated AGT entry with:          0
16882000: system.cpu.l1i.prefetcher: INSERTENTRY(): spatio_region:       0XF7, pc:   0x47bd00, physical addr:    0x7bd00
16882000: system.cpu.l1i.prefetcher: Created FT entry with:   0x47bd00
16882000: system.cpu.l1i.prefetcher: CONGRATS: SUCCESS in inserting new FT entry found!!
16946000: system.cpu.l1i.prefetcher: INSERTENTRY(): spatio_region:       0X3D, pc:   0x41efc0, physical addr:    0x1efc0
16946000: system.cpu.l1i.prefetcher: Created FT entry with:   0x41efc0
16946000: system.cpu.l1i.prefetcher: CONGRATS: SUCCESS in inserting new FT entry found!!
17023000: system.cpu.l1i.prefetcher: INSERTENTRY(): spatio_region:       0X3E, pc:   0x41f000, physical addr:    0x1f000
17023000: system.cpu.l1i.prefetcher: Created FT entry with:   0x41f000
17023000: system.cpu.l1i.prefetcher: CONGRATS: SUCCESS in inserting new FT entry found!!
17029000: system.cpu.l1d.prefetcher: INSERTENTRY(): spatio_region:      0X17E, pc:   0x41efc6, physical addr:    0xbf790
17029000: system.cpu.l1d.prefetcher: Created FT entry with:   0x41efc6
17029000: system.cpu.l1d.prefetcher: CONGRATS: SUCCESS in inserting new FT entry found!!
17087000: system.cpu.l1i.prefetcher: INSERTENTRY(): spatio_region:       0X3E, pc:   0x41f040, physical addr:    0x1f040
17087000: system.cpu.l1i.prefetcher: Created FT entry with:   0x41f040
17087000: system.cpu.l1i.prefetcher: CONGRATS: SUCCESS in inserting new FT entry found!!
17122000: system.cpu.l1d.prefetcher: Updated AGT entry with:          0
17123000: system.cpu.l1d.prefetcher: Updated AGT entry with:          0
17178000: system.cpu.l1i.prefetcher: INSERTENTRY(): spatio_region:       0X3E, pc:   0x41f130, physical addr:    0x1f100
17178000: system.cpu.l1i.prefetcher: Created FT entry with:   0x41f130
17178000: system.cpu.l1i.prefetcher: CONGRATS: SUCCESS in inserting new FT entry found!!
17242000: system.cpu.l1i.prefetcher: INSERTENTRY(): spatio_region:       0X3E, pc:   0x41f140, physical addr:    0x1f140
17242000: system.cpu.l1i.prefetcher: Created FT entry with:   0x41f140
17242000: system.cpu.l1i.prefetcher: CONGRATS: SUCCESS in inserting new FT entry found!!
17306000: system.cpu.l1i.prefetcher: INSERTENTRY(): spatio_region:       0X3D, pc:   0x41ea00, physical addr:    0x1ea00
17306000: system.cpu.l1i.prefetcher: Created FT entry with:   0x41ea00
17306000: system.cpu.l1i.prefetcher: CONGRATS: SUCCESS in inserting new FT entry found!!
17370000: system.cpu.l1i.prefetcher: INSERTENTRY(): spatio_region:       0X3D, pc:   0x41ea40, physical addr:    0x1ea40
17370000: system.cpu.l1i.prefetcher: Created FT entry with:   0x41ea40
17370000: system.cpu.l1i.prefetcher: CONGRATS: SUCCESS in inserting new FT entry found!!
17375000: system.cpu.l1d.prefetcher: INSERTENTRY(): spatio_region:      0X17E, pc:   0x41ea04, physical addr:    0xbf6e4
17375000: system.cpu.l1d.prefetcher: Created FT entry with:   0x41ea04
17375000: system.cpu.l1d.prefetcher: CONGRATS: SUCCESS in inserting new FT entry found!!
17434000: system.cpu.l1i.prefetcher: INSERTENTRY(): spatio_region:       0X3D, pc:   0x41ea80, physical addr:    0x1ea80
17434000: system.cpu.l1i.prefetcher: Created FT entry with:   0x41ea80
17434000: system.cpu.l1i.prefetcher: CONGRATS: SUCCESS in inserting new FT entry found!!
17525000: system.cpu.l1i.prefetcher: INSERTENTRY(): spatio_region:       0X3D, pc:   0x41eb50, physical addr:    0x1eb40
17525000: system.cpu.l1i.prefetcher: Created FT entry with:   0x41eb50
17525000: system.cpu.l1i.prefetcher: CONGRATS: SUCCESS in inserting new FT entry found!!
17589000: system.cpu.l1i.prefetcher: INSERTENTRY(): spatio_region:       0X3D, pc:   0x41eb80, physical addr:    0x1eb80
17589000: system.cpu.l1i.prefetcher: Created FT entry with:   0x41eb80
17589000: system.cpu.l1i.prefetcher: CONGRATS: SUCCESS in inserting new FT entry found!!
17653000: system.cpu.l1i.prefetcher: INSERTENTRY(): spatio_region:       0X3B, pc:   0x41dfd0, physical addr:    0x1dfc0
17653000: system.cpu.l1i.prefetcher: Created FT entry with:   0x41dfd0
17653000: system.cpu.l1i.prefetcher: CONGRATS: SUCCESS in inserting new FT entry found!!
17730000: system.cpu.l1i.prefetcher: INSERTENTRY(): spatio_region:       0X3C, pc:   0x41e000, physical addr:    0x1e000
17730000: system.cpu.l1i.prefetcher: Created FT entry with:   0x41e000
17730000: system.cpu.l1i.prefetcher: CONGRATS: SUCCESS in inserting new FT entry found!!
17794000: system.cpu.l1i.prefetcher: INSERTENTRY(): spatio_region:       0X3C, pc:   0x41e040, physical addr:    0x1e040
17794000: system.cpu.l1i.prefetcher: Created FT entry with:   0x41e040
17794000: system.cpu.l1i.prefetcher: CONGRATS: SUCCESS in inserting new FT entry found!!
17801000: system.cpu.l1d.prefetcher: Updated AGT entry with:          0
17810000: system.cpu.l1d.prefetcher: INSERTENTRY(): spatio_region:      0X17F, pc:   0x41e01d, physical addr:    0xbf818
17810000: system.cpu.l1d.prefetcher: Created FT entry with:   0x41e01d
17810000: system.cpu.l1d.prefetcher: CONGRATS: SUCCESS in inserting new FT entry found!!
17862000: system.cpu.l1i.prefetcher: INSERTENTRY(): spatio_region:       0X3C, pc:   0x41e080, physical addr:    0x1e080
17862000: system.cpu.l1i.prefetcher: Created FT entry with:   0x41e080
17862000: system.cpu.l1i.prefetcher: CONGRATS: SUCCESS in inserting new FT entry found!!
17876000: system.cpu.l1d.prefetcher: INSERTENTRY(): spatio_region:      0X17F, pc:   0x41e01d, physical addr:    0xbf810
17876000: system.cpu.l1d.prefetcher: Created FT entry with:   0x41e01d
17876000: system.cpu.l1d.prefetcher: CONGRATS: SUCCESS in inserting new FT entry found!!
17961000: system.cpu.l1i.prefetcher: INSERTENTRY(): spatio_region:       0X3C, pc:   0x41e0c0, physical addr:    0x1e0c0
17961000: system.cpu.l1i.prefetcher: Created FT entry with:   0x41e0c0
17961000: system.cpu.l1i.prefetcher: CONGRATS: SUCCESS in inserting new FT entry found!!
18038000: system.cpu.l1d.prefetcher: INSERTENTRY(): spatio_region:      0X17F, pc:   0x41e01d, physical addr:    0xbf848
18038000: system.cpu.l1d.prefetcher: Created FT entry with:   0x41e01d
18038000: system.cpu.l1d.prefetcher: CONGRATS: SUCCESS in inserting new FT entry found!!
18039000: system.cpu.l1d.prefetcher: Updated AGT entry with:          0
18169000: system.cpu.l1d.prefetcher: Updated AGT entry with:          0
18170000: system.cpu.l1d.prefetcher: Updated AGT entry with:          0
18273000: system.cpu.l1d.prefetcher: Updated AGT entry with:          0
18274000: system.cpu.l1d.prefetcher: Updated AGT entry with:          0
18377000: system.cpu.l1d.prefetcher: Updated AGT entry with:          0
18378000: system.cpu.l1d.prefetcher: Updated AGT entry with:          0
18481000: system.cpu.l1d.prefetcher: Updated AGT entry with:          0
18482000: system.cpu.l1d.prefetcher: Updated AGT entry with:          0
18585000: system.cpu.l1d.prefetcher: Updated AGT entry with:          0
18586000: system.cpu.l1d.prefetcher: Updated AGT entry with:          0
18689000: system.cpu.l1d.prefetcher: Updated AGT entry with:          0
18690000: system.cpu.l1d.prefetcher: Updated AGT entry with:          0
18793000: system.cpu.l1d.prefetcher: Updated AGT entry with:          0
18794000: system.cpu.l1d.prefetcher: INSERTENTRY(): spatio_region:      0X17F, pc:   0x41e01d, physical addr:    0xbfa00
18794000: system.cpu.l1d.prefetcher: Created FT entry with:   0x41e01d
18794000: system.cpu.l1d.prefetcher: CONGRATS: SUCCESS in inserting new FT entry found!!
18897000: system.cpu.l1d.prefetcher: INSERTENTRY(): spatio_region:      0X17F, pc:   0x41e01d, physical addr:    0xbfa48
18897000: system.cpu.l1d.prefetcher: Created FT entry with:   0x41e01d
18897000: system.cpu.l1d.prefetcher: CONGRATS: SUCCESS in inserting new FT entry found!!
18898000: system.cpu.l1d.prefetcher: INSERTENTRY(): spatio_region:      0X17F, pc:   0x41e01d, physical addr:    0xbfa40
18898000: system.cpu.l1d.prefetcher: Created FT entry with:   0x41e01d
18898000: system.cpu.l1d.prefetcher: CONGRATS: SUCCESS in inserting new FT entry found!!
19001000: system.cpu.l1d.prefetcher: INSERTENTRY(): spatio_region:      0X17F, pc:   0x41e01d, physical addr:    0xbfa88
19001000: system.cpu.l1d.prefetcher: Created FT entry with:   0x41e01d
19001000: system.cpu.l1d.prefetcher: CONGRATS: SUCCESS in inserting new FT entry found!!
19002000: system.cpu.l1d.prefetcher: INSERTENTRY(): spatio_region:      0X17F, pc:   0x41e01d, physical addr:    0xbfa80
19002000: system.cpu.l1d.prefetcher: Created FT entry with:   0x41e01d
19002000: system.cpu.l1d.prefetcher: CONGRATS: SUCCESS in inserting new FT entry found!!
19105000: system.cpu.l1d.prefetcher: INSERTENTRY(): spatio_region:      0X17F, pc:   0x41e01d, physical addr:    0xbfac8
19105000: system.cpu.l1d.prefetcher: Created FT entry with:   0x41e01d
19105000: system.cpu.l1d.prefetcher: CONGRATS: SUCCESS in inserting new FT entry found!!
19106000: system.cpu.l1d.prefetcher: Updated AGT entry with:          0
19209000: system.cpu.l1d.prefetcher: Updated AGT entry with:          0
19210000: system.cpu.l1d.prefetcher: Updated AGT entry with:          0
19313000: system.cpu.l1d.prefetcher: Updated AGT entry with:          0
19314000: system.cpu.l1d.prefetcher: Updated AGT entry with:          0
19417000: system.cpu.l1d.prefetcher: Updated AGT entry with:          0
19418000: system.cpu.l1d.prefetcher: Updated AGT entry with:          0
19521000: system.cpu.l1d.prefetcher: Updated AGT entry with:          0
19522000: system.cpu.l1d.prefetcher: Updated AGT entry with:          0
19625000: system.cpu.l1d.prefetcher: Updated AGT entry with:          0
19626000: system.cpu.l1d.prefetcher: Updated AGT entry with:          0
19729000: system.cpu.l1d.prefetcher: Updated AGT entry with:          0
19730000: system.cpu.l1d.prefetcher: Updated AGT entry with:          0
19846000: system.cpu.l1d.prefetcher: Updated AGT entry with:          0
19847000: system.cpu.l1d.prefetcher: Updated AGT entry with:          0
19950000: system.cpu.l1d.prefetcher: Updated AGT entry with:          0
19951000: system.cpu.l1d.prefetcher: Updated AGT entry with:          0
20054000: system.cpu.l1d.prefetcher: Updated AGT entry with:          0
20055000: system.cpu.l1d.prefetcher: Updated AGT entry with:          0
20158000: system.cpu.l1d.prefetcher: Updated AGT entry with:          0
20159000: system.cpu.l1d.prefetcher: INSERTENTRY(): spatio_region:      0X17F, pc:   0x41e01d, physical addr:    0xbfd40
20159000: system.cpu.l1d.prefetcher: Created FT entry with:   0x41e01d
20159000: system.cpu.l1d.prefetcher: CONGRATS: SUCCESS in inserting new FT entry found!!
20262000: system.cpu.l1d.prefetcher: INSERTENTRY(): spatio_region:      0X17F, pc:   0x41e01d, physical addr:    0xbfd88
20262000: system.cpu.l1d.prefetcher: Created FT entry with:   0x41e01d
20262000: system.cpu.l1d.prefetcher: CONGRATS: SUCCESS in inserting new FT entry found!!
20263000: system.cpu.l1d.prefetcher: INSERTENTRY(): spatio_region:      0X17F, pc:   0x41e01d, physical addr:    0xbfd80
20263000: system.cpu.l1d.prefetcher: Created FT entry with:   0x41e01d
20263000: system.cpu.l1d.prefetcher: CONGRATS: SUCCESS in inserting new FT entry found!!
20366000: system.cpu.l1d.prefetcher: INSERTENTRY(): spatio_region:      0X17F, pc:   0x41e01d, physical addr:    0xbfdc8
20366000: system.cpu.l1d.prefetcher: Created FT entry with:   0x41e01d
20366000: system.cpu.l1d.prefetcher: CONGRATS: SUCCESS in inserting new FT entry found!!
20367000: system.cpu.l1d.prefetcher: INSERTENTRY(): spatio_region:      0X17F, pc:   0x41e01d, physical addr:    0xbfdc0
20367000: system.cpu.l1d.prefetcher: Created FT entry with:   0x41e01d
20367000: system.cpu.l1d.prefetcher: CONGRATS: SUCCESS in inserting new FT entry found!!
20470000: system.cpu.l1d.prefetcher: INSERTENTRY(): spatio_region:      0X17F, pc:   0x41e01d, physical addr:    0xbfe08
20470000: system.cpu.l1d.prefetcher: Created FT entry with:   0x41e01d
20470000: system.cpu.l1d.prefetcher: CONGRATS: SUCCESS in inserting new FT entry found!!
20471000: system.cpu.l1d.prefetcher: INSERTENTRY(): spatio_region:      0X17F, pc:   0x41e01d, physical addr:    0xbfe00
20471000: system.cpu.l1d.prefetcher: Created FT entry with:   0x41e01d
20471000: system.cpu.l1d.prefetcher: CONGRATS: SUCCESS in inserting new FT entry found!!
20574000: system.cpu.l1d.prefetcher: INSERTENTRY(): spatio_region:      0X17F, pc:   0x41e01d, physical addr:    0xbfe48
20574000: system.cpu.l1d.prefetcher: Created FT entry with:   0x41e01d
20574000: system.cpu.l1d.prefetcher: CONGRATS: SUCCESS in inserting new FT entry found!!
20575000: system.cpu.l1d.prefetcher: INSERTENTRY(): spatio_region:      0X17F, pc:   0x41e01d, physical addr:    0xbfe40
20575000: system.cpu.l1d.prefetcher: Created FT entry with:   0x41e01d
20575000: system.cpu.l1d.prefetcher: CONGRATS: SUCCESS in inserting new FT entry found!!
20678000: system.cpu.l1d.prefetcher: INSERTENTRY(): spatio_region:      0X17F, pc:   0x41e01d, physical addr:    0xbfe88
20678000: system.cpu.l1d.prefetcher: Created FT entry with:   0x41e01d
20678000: system.cpu.l1d.prefetcher: CONGRATS: SUCCESS in inserting new FT entry found!!
20679000: system.cpu.l1d.prefetcher: INSERTENTRY(): spatio_region:      0X17F, pc:   0x41e01d, physical addr:    0xbfe80
20679000: system.cpu.l1d.prefetcher: Created FT entry with:   0x41e01d
20679000: system.cpu.l1d.prefetcher: CONGRATS: SUCCESS in inserting new FT entry found!!
20782000: system.cpu.l1d.prefetcher: INSERTENTRY(): spatio_region:      0X17F, pc:   0x41e01d, physical addr:    0xbfec8
20782000: system.cpu.l1d.prefetcher: Created FT entry with:   0x41e01d
20782000: system.cpu.l1d.prefetcher: CONGRATS: SUCCESS in inserting new FT entry found!!
20783000: system.cpu.l1d.prefetcher: INSERTENTRY(): spatio_region:      0X17F, pc:   0x41e01d, physical addr:    0xbfec0
20783000: system.cpu.l1d.prefetcher: Created FT entry with:   0x41e01d
20783000: system.cpu.l1d.prefetcher: CONGRATS: SUCCESS in inserting new FT entry found!!
20886000: system.cpu.l1d.prefetcher: INSERTENTRY(): spatio_region:      0X17F, pc:   0x41e01d, physical addr:    0xbff08
20886000: system.cpu.l1d.prefetcher: Created FT entry with:   0x41e01d
20886000: system.cpu.l1d.prefetcher: CONGRATS: SUCCESS in inserting new FT entry found!!
20887000: system.cpu.l1d.prefetcher: INSERTENTRY(): spatio_region:      0X17F, pc:   0x41e01d, physical addr:    0xbff00
20887000: system.cpu.l1d.prefetcher: Created FT entry with:   0x41e01d
20887000: system.cpu.l1d.prefetcher: CONGRATS: SUCCESS in inserting new FT entry found!!
20990000: system.cpu.l1d.prefetcher: INSERTENTRY(): spatio_region:      0X17F, pc:   0x41e01d, physical addr:    0xbff48
20990000: system.cpu.l1d.prefetcher: Created FT entry with:   0x41e01d
20990000: system.cpu.l1d.prefetcher: CONGRATS: SUCCESS in inserting new FT entry found!!
20991000: system.cpu.l1d.prefetcher: INSERTENTRY(): spatio_region:      0X17F, pc:   0x41e01d, physical addr:    0xbff40
20991000: system.cpu.l1d.prefetcher: Created FT entry with:   0x41e01d
[...]
59372000: system.cpu.l1i.prefetcher: CONGRATS: SUCCESS in inserting new FT entry found!!
59440000: system.cpu.l1i.prefetcher: INSERTENTRY(): spatio_region:       0X97, pc:   0x44bd40, physical addr:    0x4bd40
59440000: system.cpu.l1i.prefetcher: Created FT entry with:   0x44bd40
59440000: system.cpu.l1i.prefetcher: CONGRATS: SUCCESS in inserting new FT entry found!!
59540000: system.cpu.l1i.prefetcher: INSERTENTRY(): spatio_region:       0X1E, pc:   0x40f3e0, physical addr:     0xf3c0
59540000: system.cpu.l1i.prefetcher: Created FT entry with:   0x40f3e0
59540000: system.cpu.l1i.prefetcher: CONGRATS: SUCCESS in inserting new FT entry found!!
59631000: system.cpu.l1i.prefetcher: INSERTENTRY(): spatio_region:       0X1E, pc:   0x40f400, physical addr:     0xf400
59631000: system.cpu.l1i.prefetcher: Created FT entry with:   0x40f400
59631000: system.cpu.l1i.prefetcher: CONGRATS: SUCCESS in inserting new FT entry found!!
59699000: system.cpu.l1i.prefetcher: INSERTENTRY(): spatio_region:       0XB8, pc:   0x45c140, physical addr:    0x5c140
59699000: system.cpu.l1i.prefetcher: Created FT entry with:   0x45c140
59699000: system.cpu.l1i.prefetcher: CONGRATS: SUCCESS in inserting new FT entry found!!
59716000: system.cpu.l1d.prefetcher: INSERTENTRY(): spatio_region:      0X187, pc:   0x45c12d, physical addr:    0xc3dc0
59716000: system.cpu.l1d.prefetcher: Created FT entry with:   0x45c12d
59716000: system.cpu.l1d.prefetcher: CONGRATS: SUCCESS in inserting new FT entry found!!
59763000: system.cpu.l1i.prefetcher: INSERTENTRY(): spatio_region:       0XB8, pc:   0x45c180, physical addr:    0x5c180
59763000: system.cpu.l1i.prefetcher: Created FT entry with:   0x45c180
59763000: system.cpu.l1i.prefetcher: CONGRATS: SUCCESS in inserting new FT entry found!!
59769000: system.cpu.l1d.prefetcher: INSERTENTRY(): spatio_region:      0X187, pc:   0x45c143, physical addr:    0xc3dc8
59769000: system.cpu.l1d.prefetcher: Created FT entry with:   0x45c143
59769000: system.cpu.l1d.prefetcher: CONGRATS: SUCCESS in inserting new FT entry found!!
59832000: system.cpu.l1i.prefetcher: INSERTENTRY(): spatio_region:       0XB8, pc:   0x45c1c0, physical addr:    0x5c1c0
59832000: system.cpu.l1i.prefetcher: Created FT entry with:   0x45c1c0
59832000: system.cpu.l1i.prefetcher: CONGRATS: SUCCESS in inserting new FT entry found!!
59903000: system.cpu.l1d.prefetcher: Updated AGT entry with:          0
59980000: system.cpu.l1d.prefetcher: Updated AGT entry with:          0
60057000: system.cpu.l1i.prefetcher: INSERTENTRY(): spatio_region:        0X2, pc:   0x401730, physical addr:     0x1700
60057000: system.cpu.l1i.prefetcher: Created FT entry with:   0x401730
60057000: system.cpu.l1i.prefetcher: CONGRATS: SUCCESS in inserting new FT entry found!!
60141000: system.cpu.l1i.prefetcher: INSERTENTRY(): spatio_region:        0X3, pc:   0x401d80, physical addr:     0x1d80
60141000: system.cpu.l1i.prefetcher: Created FT entry with:   0x401d80
60141000: system.cpu.l1i.prefetcher: CONGRATS: SUCCESS in inserting new FT entry found!!
60233000: system.cpu.l1i.prefetcher: INSERTENTRY(): spatio_region:        0X3, pc:   0x401dc0, physical addr:     0x1dc0
60233000: system.cpu.l1i.prefetcher: Created FT entry with:   0x401dc0
60233000: system.cpu.l1i.prefetcher: CONGRATS: SUCCESS in inserting new FT entry found!!
424769000: system.cpu.l1i.prefetcher: INSERTENTRY(): spatio_region:       0X1F, pc:   0x40fec0, physical addr:     0xfec0
424769000: system.cpu.l1i.prefetcher: Created FT entry with:   0x40fec0
424769000: system.cpu.l1i.prefetcher: CONGRATS: SUCCESS in inserting new FT entry found!!
424787000: system.cpu.l1d.prefetcher: INSERTENTRY(): spatio_region:      0X17D, pc:   0x40fe5a, physical addr:    0xbefd8
424787000: system.cpu.l1d.prefetcher: Created FT entry with:   0x40fe5a
424787000: system.cpu.l1d.prefetcher: CONGRATS: SUCCESS in inserting new FT entry found!!
424846000: system.cpu.l1i.prefetcher: INSERTENTRY(): spatio_region:       0X1F, pc:   0x40ff00, physical addr:     0xff00
424846000: system.cpu.l1i.prefetcher: Created FT entry with:   0x40ff00
424846000: system.cpu.l1i.prefetcher: CONGRATS: SUCCESS in inserting new FT entry found!!
424928000: system.cpu.l1i.prefetcher: INSERTENTRY(): spatio_region:       0X1F, pc:   0x40ff40, physical addr:     0xff40
424928000: system.cpu.l1i.prefetcher: Created FT entry with:   0x40ff40
424928000: system.cpu.l1i.prefetcher: CONGRATS: SUCCESS in inserting new FT entry found!!
425001000: system.cpu.l1i.prefetcher: INSERTENTRY(): spatio_region:       0X1F, pc:   0x40ff80, physical addr:     0xff80
425001000: system.cpu.l1i.prefetcher: Created FT entry with:   0x40ff80
425001000: system.cpu.l1i.prefetcher: CONGRATS: SUCCESS in inserting new FT entry found!!
425085000: system.cpu.l1i.prefetcher: INSERTENTRY(): spatio_region:        0X5, pc:   0x402e80, physical addr:     0x2e80
425085000: system.cpu.l1i.prefetcher: Created FT entry with:   0x402e80
425085000: system.cpu.l1i.prefetcher: CONGRATS: SUCCESS in inserting new FT entry found!!
425162000: system.cpu.l1i.prefetcher: INSERTENTRY(): spatio_region:        0X2, pc:   0x4016e0, physical addr:     0x16c0
425162000: system.cpu.l1i.prefetcher: Created FT entry with:   0x4016e0
425162000: system.cpu.l1i.prefetcher: CONGRATS: SUCCESS in inserting new FT entry found!!
425244000: system.cpu.l1d.prefetcher: Updated AGT entry with:          0
425396000: system.cpu.l1i.prefetcher: INSERTENTRY(): spatio_region:        0X3, pc:   0x401c20, physical addr:     0x1c00
425396000: system.cpu.l1i.prefetcher: Created FT entry with:   0x401c20
425396000: system.cpu.l1i.prefetcher: CONGRATS: SUCCESS in inserting new FT entry found!!
425450000: system.cpu.l1i.prefetcher: INSERTENTRY(): spatio_region:      0X124, pc:   0x4920a0, physical addr:    0x92080
425450000: system.cpu.l1i.prefetcher: Created FT entry with:   0x4920a0
425450000: system.cpu.l1i.prefetcher: CONGRATS: SUCCESS in inserting new FT entry found!!
425527000: system.cpu.l1i.prefetcher: INSERTENTRY(): spatio_region:      0X124, pc:   0x4920c0, physical addr:    0x920c0
425527000: system.cpu.l1i.prefetcher: Created FT entry with:   0x4920c0
425527000: system.cpu.l1i.prefetcher: CONGRATS: SUCCESS in inserting new FT entry found!!
425591000: system.cpu.l1i.prefetcher: INSERTENTRY(): spatio_region:      0X123, pc:   0x491f70, physical addr:    0x91f40
425591000: system.cpu.l1i.prefetcher: Created FT entry with:   0x491f70
425591000: system.cpu.l1i.prefetcher: CONGRATS: SUCCESS in inserting new FT entry found!!
425668000: system.cpu.l1i.prefetcher: INSERTENTRY(): spatio_region:      0X123, pc:   0x491f80, physical addr:    0x91f80
425668000: system.cpu.l1i.prefetcher: Created FT entry with:   0x491f80
425668000: system.cpu.l1i.prefetcher: CONGRATS: SUCCESS in inserting new FT entry found!!
425732000: system.cpu.l1i.prefetcher: INSERTENTRY(): spatio_region:      0X123, pc:   0x491fc0, physical addr:    0x91fc0
425732000: system.cpu.l1i.prefetcher: Created FT entry with:   0x491fc0
425732000: system.cpu.l1i.prefetcher: CONGRATS: SUCCESS in inserting new FT entry found!!
425800000: system.cpu.l1i.prefetcher: INSERTENTRY(): spatio_region:      0X124, pc:   0x492000, physical addr:    0x92000
425800000: system.cpu.l1i.prefetcher: Created FT entry with:   0x492000
425800000: system.cpu.l1i.prefetcher: CONGRATS: SUCCESS in inserting new FT entry found!!
425869000: system.cpu.l1i.prefetcher: INSERTENTRY(): spatio_region:      0X124, pc:   0x492040, physical addr:    0x92040
425869000: system.cpu.l1i.prefetcher: Created FT entry with:   0x492040
425869000: system.cpu.l1i.prefetcher: CONGRATS: SUCCESS in inserting new FT entry found!!
425985000: system.cpu.l1i.prefetcher: INSERTENTRY(): spatio_region:        0X5, pc:   0x402ec0, physical addr:     0x2ec0
425985000: system.cpu.l1i.prefetcher: Created FT entry with:   0x402ec0
425985000: system.cpu.l1i.prefetcher: CONGRATS: SUCCESS in inserting new FT entry found!!
426049000: system.cpu.l1i.prefetcher: INSERTENTRY(): spatio_region:      0X128, pc:   0x494540, physical addr:    0x94540
426049000: system.cpu.l1i.prefetcher: Created FT entry with:   0x494540
426049000: system.cpu.l1i.prefetcher: CONGRATS: SUCCESS in inserting new FT entry found!!
426126000: system.cpu.l1i.prefetcher: INSERTENTRY(): spatio_region:      0X128, pc:   0x494580, physical addr:    0x94580
426126000: system.cpu.l1i.prefetcher: Created FT entry with:   0x494580
426126000: system.cpu.l1i.prefetcher: CONGRATS: SUCCESS in inserting new FT entry found!!
426197000: system.cpu.l1i.prefetcher: INSERTENTRY(): spatio_region:       0X1F, pc:   0x40ffc0, physical addr:     0xffc0
426197000: system.cpu.l1i.prefetcher: Created FT entry with:   0x40ffc0
426197000: system.cpu.l1i.prefetcher: CONGRATS: SUCCESS in inserting new FT entry found!!
426289000: system.cpu.l1i.prefetcher: INSERTENTRY(): spatio_region:       0X20, pc:   0x410000, physical addr:    0x10000
426289000: system.cpu.l1i.prefetcher: Created FT entry with:   0x410000
426289000: system.cpu.l1i.prefetcher: CONGRATS: SUCCESS in inserting new FT entry found!!
426384000: system.cpu.l1i.prefetcher: INSERTENTRY(): spatio_region:       0X20, pc:   0x410040, physical addr:    0x10040
426384000: system.cpu.l1i.prefetcher: Created FT entry with:   0x410040
426384000: system.cpu.l1i.prefetcher: CONGRATS: SUCCESS in inserting new FT entry found!!
426476000: system.cpu.l1i.prefetcher: INSERTENTRY(): spatio_region:       0X20, pc:   0x410080, physical addr:    0x10080
426476000: system.cpu.l1i.prefetcher: Created FT entry with:   0x410080
426476000: system.cpu.l1i.prefetcher: CONGRATS: SUCCESS in inserting new FT entry found!!
426501000: system.cpu.l1d.prefetcher: Updated AGT entry with:          0
426540000: system.cpu.l1i.prefetcher: INSERTENTRY(): spatio_region:       0X20, pc:   0x4100c0, physical addr:    0x100c0
426540000: system.cpu.l1i.prefetcher: Created FT entry with:   0x4100c0
426540000: system.cpu.l1i.prefetcher: CONGRATS: SUCCESS in inserting new FT entry found!!
426604000: system.cpu.l1i.prefetcher: INSERTENTRY(): spatio_region:       0X31, pc:   0x418850, physical addr:    0x18840
426604000: system.cpu.l1i.prefetcher: Created FT entry with:   0x418850
426604000: system.cpu.l1i.prefetcher: CONGRATS: SUCCESS in inserting new FT entry found!!
426681000: system.cpu.l1i.prefetcher: INSERTENTRY(): spatio_region:       0X31, pc:   0x418880, physical addr:    0x18880
426681000: system.cpu.l1i.prefetcher: Created FT entry with:   0x418880
426681000: system.cpu.l1i.prefetcher: CONGRATS: SUCCESS in inserting new FT entry found!!
426745000: system.cpu.l1i.prefetcher: INSERTENTRY(): spatio_region:       0X30, pc:   0x418550, physical addr:    0x18540
426745000: system.cpu.l1i.prefetcher: Created FT entry with:   0x418550
426745000: system.cpu.l1i.prefetcher: CONGRATS: SUCCESS in inserting new FT entry found!!
426809000: system.cpu.l1i.prefetcher: INSERTENTRY(): spatio_region:       0X30, pc:   0x418580, physical addr:    0x18580
426809000: system.cpu.l1i.prefetcher: Created FT entry with:   0x418580
426809000: system.cpu.l1i.prefetcher: CONGRATS: SUCCESS in inserting new FT entry found!!
426873000: system.cpu.l1i.prefetcher: INSERTENTRY(): spatio_region:       0X30, pc:   0x4185c0, physical addr:    0x185c0
426873000: system.cpu.l1i.prefetcher: Created FT entry with:   0x4185c0
426873000: system.cpu.l1i.prefetcher: CONGRATS: SUCCESS in inserting new FT entry found!!
426937000: system.cpu.l1i.prefetcher: INSERTENTRY(): spatio_region:       0X30, pc:   0x418780, physical addr:    0x18780
426937000: system.cpu.l1i.prefetcher: Created FT entry with:   0x418780
426937000: system.cpu.l1i.prefetcher: CONGRATS: SUCCESS in inserting new FT entry found!!
427001000: system.cpu.l1i.prefetcher: INSERTENTRY(): spatio_region:       0X30, pc:   0x4187c0, physical addr:    0x187c0
427001000: system.cpu.l1i.prefetcher: Created FT entry with:   0x4187c0
427001000: system.cpu.l1i.prefetcher: CONGRATS: SUCCESS in inserting new FT entry found!!
427069000: system.cpu.l1i.prefetcher: INSERTENTRY(): spatio_region:       0X30, pc:   0x418600, physical addr:    0x18600
427069000: system.cpu.l1i.prefetcher: Created FT entry with:   0x418600
427069000: system.cpu.l1i.prefetcher: CONGRATS: SUCCESS in inserting new FT entry found!!
427073000: system.cpu.l1d.prefetcher: INSERTENTRY(): spatio_region:      0X183, pc:   0x41859e, physical addr:    0xc1c58
427073000: system.cpu.l1d.prefetcher: Created FT entry with:   0x41859e
427073000: system.cpu.l1d.prefetcher: CONGRATS: SUCCESS in inserting new FT entry found!!
427133000: system.cpu.l1i.prefetcher: INSERTENTRY(): spatio_region:       0X30, pc:   0x418640, physical addr:    0x18640
427133000: system.cpu.l1i.prefetcher: Created FT entry with:   0x418640
427133000: system.cpu.l1i.prefetcher: CONGRATS: SUCCESS in inserting new FT entry found!!
427167000: system.cpu.l1d.prefetcher: Updated AGT entry with:          0
427197000: system.cpu.l1i.prefetcher: INSERTENTRY(): spatio_region:       0X30, pc:   0x4186a4, physical addr:    0x18680
427197000: system.cpu.l1i.prefetcher: Created FT entry with:   0x4186a4
427197000: system.cpu.l1i.prefetcher: CONGRATS: SUCCESS in inserting new FT entry found!!
427261000: system.cpu.l1i.prefetcher: INSERTENTRY(): spatio_region:       0X30, pc:   0x4186c0, physical addr:    0x186c0
427261000: system.cpu.l1i.prefetcher: Created FT entry with:   0x4186c0
427261000: system.cpu.l1i.prefetcher: CONGRATS: SUCCESS in inserting new FT entry found!!
427269000: system.cpu.l1d.prefetcher: Updated AGT entry with:          0
427327000: system.cpu.l1i.prefetcher: INSERTENTRY(): spatio_region:       0X30, pc:   0x418700, physical addr:    0x18700
427327000: system.cpu.l1i.prefetcher: Created FT entry with:   0x418700
427327000: system.cpu.l1i.prefetcher: CONGRATS: SUCCESS in inserting new FT entry found!!
427332000: system.cpu.l1d.prefetcher: Updated AGT entry with:          0
427391000: system.cpu.l1i.prefetcher: INSERTENTRY(): spatio_region:       0X30, pc:   0x418740, physical addr:    0x18740
427391000: system.cpu.l1i.prefetcher: Created FT entry with:   0x418740
427391000: system.cpu.l1i.prefetcher: CONGRATS: SUCCESS in inserting new FT entry found!!
427475000: system.cpu.l1d.prefetcher: Updated AGT entry with:          0
427541000: system.cpu.l1d.prefetcher: Updated AGT entry with:          0
427604000: system.cpu.l1d.prefetcher: Updated AGT entry with:          0
427667000: system.cpu.l1d.prefetcher: Updated AGT entry with:          0
427668000: system.cpu.l1d.prefetcher: Updated AGT entry with:          0
427759000: system.cpu.l1d.prefetcher: Updated AGT entry with:          0
427825000: system.cpu.l1d.prefetcher: Updated AGT entry with:          0
427888000: system.cpu.l1d.prefetcher: Updated AGT entry with:          0
427982000: system.cpu.l1d.prefetcher: INSERTENTRY(): spatio_region:      0X17E, pc:   0x41869b, physical addr:    0xbf568
427982000: system.cpu.l1d.prefetcher: Created FT entry with:   0x41869b
427982000: system.cpu.l1d.prefetcher: CONGRATS: SUCCESS in inserting new FT entry found!!
428097000: system.cpu.l1i.prefetcher: INSERTENTRY(): spatio_region:       0X31, pc:   0x418800, physical addr:    0x18800
428097000: system.cpu.l1i.prefetcher: Created FT entry with:   0x418800
428097000: system.cpu.l1i.prefetcher: CONGRATS: SUCCESS in inserting new FT entry found!!
428165000: system.cpu.l1i.prefetcher: INSERTENTRY(): spatio_region:       0X31, pc:   0x4188c0, physical addr:    0x188c0
428165000: system.cpu.l1i.prefetcher: Created FT entry with:   0x4188c0
428165000: system.cpu.l1i.prefetcher: CONGRATS: SUCCESS in inserting new FT entry found!!
428229000: system.cpu.l1i.prefetcher: INSERTENTRY(): spatio_region:       0X31, pc:   0x418ac8, physical addr:    0x18ac0
428229000: system.cpu.l1i.prefetcher: Created FT entry with:   0x418ac8
428229000: system.cpu.l1i.prefetcher: CONGRATS: SUCCESS in inserting new FT entry found!!
428293000: system.cpu.l1i.prefetcher: INSERTENTRY(): spatio_region:       0X31, pc:   0x418b00, physical addr:    0x18b00
428293000: system.cpu.l1i.prefetcher: Created FT entry with:   0x418b00
428293000: system.cpu.l1i.prefetcher: CONGRATS: SUCCESS in inserting new FT entry found!!
428623000: system.cpu.l1i.prefetcher: INSERTENTRY(): spatio_region:       0X31, pc:   0x418900, physical addr:    0x18900
428623000: system.cpu.l1i.prefetcher: Created FT entry with:   0x418900
428623000: system.cpu.l1i.prefetcher: CONGRATS: SUCCESS in inserting new FT entry found!!
428689000: system.cpu.l1i.prefetcher: INSERTENTRY(): spatio_region:       0X31, pc:   0x418940, physical addr:    0x18940
428689000: system.cpu.l1i.prefetcher: Created FT entry with:   0x418940
428689000: system.cpu.l1i.prefetcher: CONGRATS: SUCCESS in inserting new FT entry found!!
428758000: system.cpu.l1i.prefetcher: INSERTENTRY(): spatio_region:       0X31, pc:   0x418980, physical addr:    0x18980
428758000: system.cpu.l1i.prefetcher: Created FT entry with:   0x418980
428758000: system.cpu.l1i.prefetcher: CONGRATS: SUCCESS in inserting new FT entry found!!
428835000: system.cpu.l1i.prefetcher: INSERTENTRY(): spatio_region:       0X31, pc:   0x4189c0, physical addr:    0x189c0
428835000: system.cpu.l1i.prefetcher: Created FT entry with:   0x4189c0
428835000: system.cpu.l1i.prefetcher: CONGRATS: SUCCESS in inserting new FT entry found!!
428840000: system.cpu.l1d.prefetcher: INSERTENTRY(): spatio_region:      0X17E, pc:   0x418928, physical addr:    0xbf588
428840000: system.cpu.l1d.prefetcher: Created FT entry with:   0x418928
428840000: system.cpu.l1d.prefetcher: CONGRATS: SUCCESS in inserting new FT entry found!!
428927000: system.cpu.l1i.prefetcher: INSERTENTRY(): spatio_region:       0X31, pc:   0x418a20, physical addr:    0x18a00
428927000: system.cpu.l1i.prefetcher: Created FT entry with:   0x418a20
428927000: system.cpu.l1i.prefetcher: CONGRATS: SUCCESS in inserting new FT entry found!!
428991000: system.cpu.l1i.prefetcher: INSERTENTRY(): spatio_region:       0X31, pc:   0x418a40, physical addr:    0x18a40
428991000: system.cpu.l1i.prefetcher: Created FT entry with:   0x418a40
428991000: system.cpu.l1i.prefetcher: CONGRATS: SUCCESS in inserting new FT entry found!!
429055000: system.cpu.l1i.prefetcher: INSERTENTRY(): spatio_region:       0X31, pc:   0x418a80, physical addr:    0x18a80
429055000: system.cpu.l1i.prefetcher: Created FT entry with:   0x418a80
429055000: system.cpu.l1i.prefetcher: CONGRATS: SUCCESS in inserting new FT entry found!!
429148000: system.cpu.l1i.prefetcher: INSERTENTRY(): spatio_region:       0X31, pc:   0x418b40, physical addr:    0x18b40
429148000: system.cpu.l1i.prefetcher: Created FT entry with:   0x418b40
429148000: system.cpu.l1i.prefetcher: CONGRATS: SUCCESS in inserting new FT entry found!!
429228000: system.cpu.l1i.prefetcher: INSERTENTRY(): spatio_region:       0X8F, pc:   0x447df0, physical addr:    0x47dc0
429228000: system.cpu.l1i.prefetcher: Created FT entry with:   0x447df0
429228000: system.cpu.l1i.prefetcher: CONGRATS: SUCCESS in inserting new FT entry found!!
429305000: system.cpu.l1i.prefetcher: INSERTENTRY(): spatio_region:       0X8F, pc:   0x447e00, physical addr:    0x47e00
429305000: system.cpu.l1i.prefetcher: Created FT entry with:   0x447e00
429305000: system.cpu.l1i.prefetcher: CONGRATS: SUCCESS in inserting new FT entry found!!
429369000: system.cpu.l1i.prefetcher: INSERTENTRY(): spatio_region:       0X8F, pc:   0x447e40, physical addr:    0x47e40
429369000: system.cpu.l1i.prefetcher: Created FT entry with:   0x447e40
429369000: system.cpu.l1i.prefetcher: CONGRATS: SUCCESS in inserting new FT entry found!!
429437000: system.cpu.l1i.prefetcher: INSERTENTRY(): spatio_region:       0X8F, pc:   0x447e80, physical addr:    0x47e80
429437000: system.cpu.l1i.prefetcher: Created FT entry with:   0x447e80
429437000: system.cpu.l1i.prefetcher: CONGRATS: SUCCESS in inserting new FT entry found!!
Exit Eventexiting with last active thread context
Dump stats at the end of the ROI!
