gem5 Simulator System.  http://gem5.org
gem5 is copyrighted software; use the --copyright option for details.

gem5 version 20.1.0.2
gem5 compiled Dec  7 2021 06:48:41
gem5 started Dec  7 2021 06:49:27
gem5 executing on ARCH-750, pid 878607
command line: /data/home/ycc32/450_project/gem5/build/X86/gem5.opt --debug-flags=HWPrefetch -re --outdir=/data/home/ycc32/450_project/gem5/results/X86/run_micro/ED1/Minor4/Slow/DDR3_2133_8x8/1GHz gem5-config/run_micro.py Minor4 Slow microbenchmark/ED1/bench.X86 DDR3_2133_8x8 --clock=1GHz

1GHz CPU speed and DRAM = DDR3_2133_8x8
system.py: init L2 cache with size 1MB
Global frequency set at 1000000000000 ticks per second
   1000: system.cpu.l1i.prefetcher: PC:   0X401BE0
   1000: system.cpu.l1i.prefetcher: Spatial Region address:        0X3
   1000: system.cpu.l1i.prefetcher: Spatial Region physical address:     0X1BC0
   1000: system.cpu.l1i.prefetcher: Spatial Region offset:        0XF
  79000: system.cpu.l1i.prefetcher: PC:   0X401C00
  79000: system.cpu.l1i.prefetcher: Spatial Region address:        0X3
  79000: system.cpu.l1i.prefetcher: Spatial Region physical address:     0X1C00
  79000: system.cpu.l1i.prefetcher: Spatial Region offset:       0X10
  82000: system.cpu.l1d.prefetcher: PC:   0X401BE9
  82000: system.cpu.l1d.prefetcher: Spatial Region address:      0X187
  82000: system.cpu.l1d.prefetcher: Spatial Region physical address:    0XC3E40
  82000: system.cpu.l1d.prefetcher: Spatial Region offset:       0X19
 143000: system.cpu.l1i.prefetcher: PC:   0X401C40
 143000: system.cpu.l1i.prefetcher: Spatial Region address:        0X3
 143000: system.cpu.l1i.prefetcher: Spatial Region physical address:     0X1C40
 143000: system.cpu.l1i.prefetcher: Spatial Region offset:       0X11
 161000: system.cpu.l1d.prefetcher: PC:   0X401BF1
 161000: system.cpu.l1d.prefetcher: Spatial Region address:      0X187
 161000: system.cpu.l1d.prefetcher: Spatial Region physical address:    0XC3E38
 161000: system.cpu.l1d.prefetcher: Spatial Region offset:       0X18
 162000: system.cpu.l1d.prefetcher: PC:   0X401BF2
 162000: system.cpu.l1d.prefetcher: Spatial Region address:      0X187
 162000: system.cpu.l1d.prefetcher: Spatial Region physical address:    0XC3E30
 162000: system.cpu.l1d.prefetcher: Spatial Region offset:       0X18
 207000: system.cpu.l1i.prefetcher: PC:   0X4020C0
 207000: system.cpu.l1i.prefetcher: Spatial Region address:        0X4
 207000: system.cpu.l1i.prefetcher: Spatial Region physical address:     0X20C0
 207000: system.cpu.l1i.prefetcher: Spatial Region offset:        0X3
 298000: system.cpu.l1i.prefetcher: PC:   0X402100
 298000: system.cpu.l1i.prefetcher: Spatial Region address:        0X4
 298000: system.cpu.l1i.prefetcher: Spatial Region physical address:     0X2100
 298000: system.cpu.l1i.prefetcher: Spatial Region offset:        0X4
 318000: system.cpu.l1d.prefetcher: PC:   0X4020DE
 318000: system.cpu.l1d.prefetcher: Spatial Region address:      0X187
 318000: system.cpu.l1d.prefetcher: Spatial Region physical address:    0XC3D30
 318000: system.cpu.l1d.prefetcher: Spatial Region offset:       0X14
 321000: system.cpu.l1d.prefetcher: PC:   0X4020EA
 321000: system.cpu.l1d.prefetcher: Spatial Region address:      0X187
 321000: system.cpu.l1d.prefetcher: Spatial Region physical address:    0XC3D38
 321000: system.cpu.l1d.prefetcher: Spatial Region offset:       0X14
 364000: system.cpu.l1i.prefetcher: PC:   0X402140
 364000: system.cpu.l1i.prefetcher: Spatial Region address:        0X4
 364000: system.cpu.l1i.prefetcher: Spatial Region physical address:     0X2140
 364000: system.cpu.l1i.prefetcher: Spatial Region offset:        0X5
 408000: system.cpu.l1d.prefetcher: PC:   0X402101
 408000: system.cpu.l1d.prefetcher: Spatial Region address:      0X180
 408000: system.cpu.l1d.prefetcher: Spatial Region physical address:    0XC06C8
 408000: system.cpu.l1d.prefetcher: Spatial Region offset:       0X1B
 460000: system.cpu.l1i.prefetcher: PC:   0X401C80
 460000: system.cpu.l1i.prefetcher: Spatial Region address:        0X3
 460000: system.cpu.l1i.prefetcher: Spatial Region physical address:     0X1C80
 460000: system.cpu.l1i.prefetcher: Spatial Region offset:       0X12
 555000: system.cpu.l1i.prefetcher: PC:   0X402180
 555000: system.cpu.l1i.prefetcher: Spatial Region address:        0X4
 555000: system.cpu.l1i.prefetcher: Spatial Region physical address:     0X2180
 555000: system.cpu.l1i.prefetcher: Spatial Region offset:        0X6
 562000: system.cpu.l1d.prefetcher: PC:   0X402123
 562000: system.cpu.l1d.prefetcher: Spatial Region address:      0X183
 562000: system.cpu.l1d.prefetcher: Spatial Region physical address:    0XC1CE8
 562000: system.cpu.l1d.prefetcher: Spatial Region offset:       0X13
 565000: system.cpu.l1d.prefetcher: PC:   0X40212A
 565000: system.cpu.l1d.prefetcher: Spatial Region address:      0X17D
 565000: system.cpu.l1d.prefetcher: Spatial Region physical address:    0XBEA70
 565000: system.cpu.l1d.prefetcher: Spatial Region offset:        0X9
 619000: system.cpu.l1i.prefetcher: PC:   0X4021C0
 619000: system.cpu.l1i.prefetcher: Spatial Region address:        0X4
 619000: system.cpu.l1i.prefetcher: Spatial Region physical address:     0X21C0
 619000: system.cpu.l1i.prefetcher: Spatial Region offset:        0X7
 683000: system.cpu.l1i.prefetcher: PC:   0X44C3C0
 683000: system.cpu.l1i.prefetcher: Spatial Region address:       0X98
 683000: system.cpu.l1i.prefetcher: Spatial Region physical address:    0X4C3C0
 683000: system.cpu.l1i.prefetcher: Spatial Region offset:        0XF
 760000: system.cpu.l1i.prefetcher: PC:   0X44C400
 760000: system.cpu.l1i.prefetcher: Spatial Region address:       0X98
 760000: system.cpu.l1i.prefetcher: Spatial Region physical address:    0X4C400
 760000: system.cpu.l1i.prefetcher: Spatial Region offset:       0X10
 767000: system.cpu.l1d.prefetcher: PC:   0X44C3C7
 767000: system.cpu.l1d.prefetcher: Spatial Region address:      0X184
 767000: system.cpu.l1d.prefetcher: Spatial Region physical address:    0XC27E0
 767000: system.cpu.l1d.prefetcher: Spatial Region offset:       0X1F
 773000: system.cpu.l1d.prefetcher: PC:   0X44C3D9
 773000: system.cpu.l1d.prefetcher: Spatial Region address:      0X183
 773000: system.cpu.l1d.prefetcher: Spatial Region physical address:    0XC1D00
 773000: system.cpu.l1d.prefetcher: Spatial Region offset:       0X14
 824000: system.cpu.l1i.prefetcher: PC:   0X44C440
 824000: system.cpu.l1i.prefetcher: Spatial Region address:       0X98
 824000: system.cpu.l1i.prefetcher: Spatial Region physical address:    0X4C440
 824000: system.cpu.l1i.prefetcher: Spatial Region offset:       0X11
 862000: system.cpu.l1d.prefetcher: PC:   0X44C3E8
 862000: system.cpu.l1d.prefetcher: Spatial Region address:      0X185
 862000: system.cpu.l1d.prefetcher: Spatial Region physical address:    0XC2890
 862000: system.cpu.l1d.prefetcher: Spatial Region offset:        0X2
 888000: system.cpu.l1i.prefetcher: PC:   0X44C480
 888000: system.cpu.l1i.prefetcher: Spatial Region address:       0X98
 888000: system.cpu.l1i.prefetcher: Spatial Region physical address:    0X4C480
 888000: system.cpu.l1i.prefetcher: Spatial Region offset:       0X12
 927000: system.cpu.l1d.prefetcher: PC:   0X44C3F6
 927000: system.cpu.l1d.prefetcher: Spatial Region address:      0X180
 927000: system.cpu.l1d.prefetcher: Spatial Region physical address:    0XC0118
 927000: system.cpu.l1d.prefetcher: Spatial Region offset:        0X4
 952000: system.cpu.l1i.prefetcher: PC:   0X44C4C0
 952000: system.cpu.l1i.prefetcher: Spatial Region address:       0X98
 952000: system.cpu.l1i.prefetcher: Spatial Region physical address:    0X4C4C0
 952000: system.cpu.l1i.prefetcher: Spatial Region offset:       0X13
 991000: system.cpu.l1d.prefetcher: PC:   0X44C404
 991000: system.cpu.l1d.prefetcher: Spatial Region address:      0X185
 991000: system.cpu.l1d.prefetcher: Spatial Region physical address:    0XC2848
 991000: system.cpu.l1d.prefetcher: Spatial Region offset:        0X1
1054000: system.cpu.l1d.prefetcher: PC:   0X44C40B
1054000: system.cpu.l1d.prefetcher: Spatial Region address:      0X185
1054000: system.cpu.l1d.prefetcher: Spatial Region physical address:    0XC2810
1054000: system.cpu.l1d.prefetcher: Spatial Region offset:          0
1119000: system.cpu.l1d.prefetcher: PC:   0X44C412
1119000: system.cpu.l1d.prefetcher: Spatial Region address:      0X187
1119000: system.cpu.l1d.prefetcher: Spatial Region physical address:    0XC3CF8
1119000: system.cpu.l1d.prefetcher: Spatial Region offset:       0X13
1120000: system.cpu.l1d.prefetcher: PC:   0X44C417
1120000: system.cpu.l1d.prefetcher: Spatial Region address:      0X187
1120000: system.cpu.l1d.prefetcher: Spatial Region physical address:    0XC3CF0
1120000: system.cpu.l1d.prefetcher: Spatial Region offset:       0X13
1188000: system.cpu.l1d.prefetcher: PC:   0X44C42B
1188000: system.cpu.l1d.prefetcher: Spatial Region address:      0X17D
1188000: system.cpu.l1d.prefetcher: Spatial Region physical address:    0XBEAA0
1188000: system.cpu.l1d.prefetcher: Spatial Region offset:        0XA
1256000: system.cpu.l1i.prefetcher: PC:   0X44C500
1256000: system.cpu.l1i.prefetcher: Spatial Region address:       0X98
1256000: system.cpu.l1i.prefetcher: Spatial Region physical address:    0X4C500
1256000: system.cpu.l1i.prefetcher: Spatial Region offset:       0X14
1287000: system.cpu.l1d.prefetcher: PC:   0X44C484
1287000: system.cpu.l1d.prefetcher: Spatial Region address:      0X187
1287000: system.cpu.l1d.prefetcher: Spatial Region physical address:    0XC3CB8
1287000: system.cpu.l1d.prefetcher: Spatial Region offset:       0X12
1288000: system.cpu.l1d.prefetcher: PC:   0X44C48B
1288000: system.cpu.l1d.prefetcher: Spatial Region address:      0X187
1288000: system.cpu.l1d.prefetcher: Spatial Region physical address:    0XC3CB0
1288000: system.cpu.l1d.prefetcher: Spatial Region offset:       0X12
1320000: system.cpu.l1i.prefetcher: PC:   0X44C540
1320000: system.cpu.l1i.prefetcher: Spatial Region address:       0X98
1320000: system.cpu.l1i.prefetcher: Spatial Region physical address:    0X4C540
1320000: system.cpu.l1i.prefetcher: Spatial Region offset:       0X15
1350000: system.cpu.l1d.prefetcher: PC:   0X44C4A2
1350000: system.cpu.l1d.prefetcher: Spatial Region address:      0X131
1350000: system.cpu.l1d.prefetcher: Spatial Region physical address:    0X98FB8
1350000: system.cpu.l1d.prefetcher: Spatial Region offset:       0X1E
1429000: system.cpu.l1i.prefetcher: PC:   0X44C5B0
1429000: system.cpu.l1i.prefetcher: Spatial Region address:       0X98
1429000: system.cpu.l1i.prefetcher: Spatial Region physical address:    0X4C580
1429000: system.cpu.l1i.prefetcher: Spatial Region offset:       0X16
1493000: system.cpu.l1i.prefetcher: PC:   0X44C5C0
1493000: system.cpu.l1i.prefetcher: Spatial Region address:       0X98
1493000: system.cpu.l1i.prefetcher: Spatial Region physical address:    0X4C5C0
1493000: system.cpu.l1i.prefetcher: Spatial Region offset:       0X17
1557000: system.cpu.l1i.prefetcher: PC:   0X44C600
1557000: system.cpu.l1i.prefetcher: Spatial Region address:       0X98
1557000: system.cpu.l1i.prefetcher: Spatial Region physical address:    0X4C600
1557000: system.cpu.l1i.prefetcher: Spatial Region offset:       0X18
1630000: system.cpu.l1d.prefetcher: PC:   0X44C4A2
1630000: system.cpu.l1d.prefetcher: Spatial Region address:      0X131
1630000: system.cpu.l1d.prefetcher: Spatial Region physical address:    0X98F74
1630000: system.cpu.l1d.prefetcher: Spatial Region offset:       0X1D
1696000: system.cpu.l1i.prefetcher: PC:   0X44C680
1696000: system.cpu.l1i.prefetcher: Spatial Region address:       0X98
1696000: system.cpu.l1i.prefetcher: Spatial Region physical address:    0X4C680
1696000: system.cpu.l1i.prefetcher: Spatial Region offset:       0X1A
1760000: system.cpu.l1i.prefetcher: PC:   0X44C6C0
1760000: system.cpu.l1i.prefetcher: Spatial Region address:       0X98
1760000: system.cpu.l1i.prefetcher: Spatial Region physical address:    0X4C6C0
1760000: system.cpu.l1i.prefetcher: Spatial Region offset:       0X1B
1769000: system.cpu.l1d.prefetcher: PC:   0X44C692
1769000: system.cpu.l1d.prefetcher: Spatial Region address:      0X187
1769000: system.cpu.l1d.prefetcher: Spatial Region physical address:    0XC3E80
1769000: system.cpu.l1d.prefetcher: Spatial Region offset:       0X1A
1824000: system.cpu.l1i.prefetcher: PC:   0X44C700
1824000: system.cpu.l1i.prefetcher: Spatial Region address:       0X98
1824000: system.cpu.l1i.prefetcher: Spatial Region physical address:    0X4C700
1824000: system.cpu.l1i.prefetcher: Spatial Region offset:       0X1C
1903000: system.cpu.l1i.prefetcher: PC:   0X44C750
1903000: system.cpu.l1i.prefetcher: Spatial Region address:       0X98
1903000: system.cpu.l1i.prefetcher: Spatial Region physical address:    0X4C740
1903000: system.cpu.l1i.prefetcher: Spatial Region offset:       0X1D
1967000: system.cpu.l1i.prefetcher: PC:   0X44C780
1967000: system.cpu.l1i.prefetcher: Spatial Region address:       0X98
1967000: system.cpu.l1i.prefetcher: Spatial Region physical address:    0X4C780
1967000: system.cpu.l1i.prefetcher: Spatial Region offset:       0X1E
2046000: system.cpu.l1i.prefetcher: PC:   0X44C658
2046000: system.cpu.l1i.prefetcher: Spatial Region address:       0X98
2046000: system.cpu.l1i.prefetcher: Spatial Region physical address:    0X4C640
2046000: system.cpu.l1i.prefetcher: Spatial Region offset:       0X19
2140000: system.cpu.l1i.prefetcher: PC:   0X44C7C0
2140000: system.cpu.l1i.prefetcher: Spatial Region address:       0X98
2140000: system.cpu.l1i.prefetcher: Spatial Region physical address:    0X4C7C0
2140000: system.cpu.l1i.prefetcher: Spatial Region offset:       0X1F
2239000: system.cpu.l1d.prefetcher: PC:   0X44C4C0
2239000: system.cpu.l1d.prefetcher: Spatial Region address:      0X187
2239000: system.cpu.l1d.prefetcher: Spatial Region physical address:    0XC3EC0
2239000: system.cpu.l1d.prefetcher: Spatial Region offset:       0X1B
2330000: system.cpu.l1i.prefetcher: PC:   0X44C800
2330000: system.cpu.l1i.prefetcher: Spatial Region address:       0X99
2330000: system.cpu.l1i.prefetcher: Spatial Region physical address:    0X4C800
2330000: system.cpu.l1i.prefetcher: Spatial Region offset:          0
2482000: system.cpu.l1d.prefetcher: PC:   0X44C4C0
2482000: system.cpu.l1d.prefetcher: Spatial Region address:      0X187
2482000: system.cpu.l1d.prefetcher: Spatial Region physical address:    0XC3F00
2482000: system.cpu.l1d.prefetcher: Spatial Region offset:       0X1C
2673000: system.cpu.l1d.prefetcher: PC:   0X44C6D3
2673000: system.cpu.l1d.prefetcher: Spatial Region address:      0X187
2673000: system.cpu.l1d.prefetcher: Spatial Region physical address:    0XC3F40
2673000: system.cpu.l1d.prefetcher: Spatial Region offset:       0X1D
2877000: system.cpu.l1d.prefetcher: PC:   0X44C6BB
2877000: system.cpu.l1d.prefetcher: Spatial Region address:      0X187
2877000: system.cpu.l1d.prefetcher: Spatial Region physical address:    0XC3F80
2877000: system.cpu.l1d.prefetcher: Spatial Region offset:       0X1E
2964000: system.cpu.l1i.prefetcher: PC:   0X44C840
2964000: system.cpu.l1i.prefetcher: Spatial Region address:       0X99
2964000: system.cpu.l1i.prefetcher: Spatial Region physical address:    0X4C840
2964000: system.cpu.l1i.prefetcher: Spatial Region offset:        0X1
3155000: system.cpu.l1i.prefetcher: PC:   0X402200
3155000: system.cpu.l1i.prefetcher: Spatial Region address:        0X4
3155000: system.cpu.l1i.prefetcher: Spatial Region physical address:     0X2200
3155000: system.cpu.l1i.prefetcher: Spatial Region offset:        0X8
3257000: system.cpu.l1i.prefetcher: PC:   0X44D520
3257000: system.cpu.l1i.prefetcher: Spatial Region address:       0X9A
3257000: system.cpu.l1i.prefetcher: Spatial Region physical address:    0X4D500
3257000: system.cpu.l1i.prefetcher: Spatial Region offset:       0X14
3321000: system.cpu.l1i.prefetcher: PC:   0X44D540
3321000: system.cpu.l1i.prefetcher: Spatial Region address:       0X9A
3321000: system.cpu.l1i.prefetcher: Spatial Region physical address:    0X4D540
3321000: system.cpu.l1i.prefetcher: Spatial Region offset:       0X15
3396000: system.cpu.l1i.prefetcher: PC:   0X402240
3396000: system.cpu.l1i.prefetcher: Spatial Region address:        0X4
3396000: system.cpu.l1i.prefetcher: Spatial Region physical address:     0X2240
3396000: system.cpu.l1i.prefetcher: Spatial Region offset:        0X9
3460000: system.cpu.l1i.prefetcher: PC:   0X44BDC0
3460000: system.cpu.l1i.prefetcher: Spatial Region address:       0X97
3460000: system.cpu.l1i.prefetcher: Spatial Region physical address:    0X4BDC0
3460000: system.cpu.l1i.prefetcher: Spatial Region offset:       0X17
3537000: system.cpu.l1i.prefetcher: PC:   0X44BE00
3537000: system.cpu.l1i.prefetcher: Spatial Region address:       0X97
3537000: system.cpu.l1i.prefetcher: Spatial Region physical address:    0X4BE00
3537000: system.cpu.l1i.prefetcher: Spatial Region offset:       0X18
3601000: system.cpu.l1i.prefetcher: PC:   0X44BE40
3601000: system.cpu.l1i.prefetcher: Spatial Region address:       0X97
3601000: system.cpu.l1i.prefetcher: Spatial Region physical address:    0X4BE40
3601000: system.cpu.l1i.prefetcher: Spatial Region offset:       0X19
3665000: system.cpu.l1i.prefetcher: PC:   0X44BF0A
3665000: system.cpu.l1i.prefetcher: Spatial Region address:       0X97
3665000: system.cpu.l1i.prefetcher: Spatial Region physical address:    0X4BF00
3665000: system.cpu.l1i.prefetcher: Spatial Region offset:       0X1C
3729000: system.cpu.l1i.prefetcher: PC:   0X44BF40
3729000: system.cpu.l1i.prefetcher: Spatial Region address:       0X97
3729000: system.cpu.l1i.prefetcher: Spatial Region physical address:    0X4BF40
3729000: system.cpu.l1i.prefetcher: Spatial Region offset:       0X1D
3801000: system.cpu.l1d.prefetcher: PC:   0X402195
3801000: system.cpu.l1d.prefetcher: Spatial Region address:      0X187
3801000: system.cpu.l1d.prefetcher: Spatial Region physical address:    0XC3D4C
3801000: system.cpu.l1d.prefetcher: Spatial Region offset:       0X15
3816000: system.cpu.l1d.prefetcher: PC:   0X40219F
3816000: system.cpu.l1d.prefetcher: Spatial Region address:      0X187
3816000: system.cpu.l1d.prefetcher: Spatial Region physical address:    0XC3D50
3816000: system.cpu.l1d.prefetcher: Spatial Region offset:       0X15
3828000: system.cpu.l1i.prefetcher: PC:   0X40232D
3828000: system.cpu.l1i.prefetcher: Spatial Region address:        0X4
3828000: system.cpu.l1i.prefetcher: Spatial Region physical address:     0X2300
3828000: system.cpu.l1i.prefetcher: Spatial Region offset:        0XC
3891000: system.cpu.l1d.prefetcher: PC:   0X4021AF
3891000: system.cpu.l1d.prefetcher: Spatial Region address:      0X183
3891000: system.cpu.l1d.prefetcher: Spatial Region physical address:    0XC1D8C
3891000: system.cpu.l1d.prefetcher: Spatial Region offset:       0X16
3938000: system.cpu.l1i.prefetcher: PC:   0X402340
3938000: system.cpu.l1i.prefetcher: Spatial Region address:        0X4
3938000: system.cpu.l1i.prefetcher: Spatial Region physical address:     0X2340
3938000: system.cpu.l1i.prefetcher: Spatial Region offset:        0XD
4002000: system.cpu.l1i.prefetcher: PC:   0X402883
4002000: system.cpu.l1i.prefetcher: Spatial Region address:        0X5
4002000: system.cpu.l1i.prefetcher: Spatial Region physical address:     0X2880
4002000: system.cpu.l1i.prefetcher: Spatial Region offset:        0X2
4066000: system.cpu.l1i.prefetcher: PC:   0X4028C0
4066000: system.cpu.l1i.prefetcher: Spatial Region address:        0X5
4066000: system.cpu.l1i.prefetcher: Spatial Region physical address:     0X28C0
4066000: system.cpu.l1i.prefetcher: Spatial Region offset:        0X3
4139000: system.cpu.l1i.prefetcher: PC:   0X402280
4139000: system.cpu.l1i.prefetcher: Spatial Region address:        0X4
4139000: system.cpu.l1i.prefetcher: Spatial Region physical address:     0X2280
4139000: system.cpu.l1i.prefetcher: Spatial Region offset:        0XA
4203000: system.cpu.l1i.prefetcher: PC:   0X401D40
4203000: system.cpu.l1i.prefetcher: Spatial Region address:        0X3
4203000: system.cpu.l1i.prefetcher: Spatial Region physical address:     0X1D40
4203000: system.cpu.l1i.prefetcher: Spatial Region offset:       0X15
4294000: system.cpu.l1i.prefetcher: PC:   0X401D80
4294000: system.cpu.l1i.prefetcher: Spatial Region address:        0X3
4294000: system.cpu.l1i.prefetcher: Spatial Region physical address:     0X1D80
4294000: system.cpu.l1i.prefetcher: Spatial Region offset:       0X16
4360000: system.cpu.l1i.prefetcher: PC:   0X401DC0
4360000: system.cpu.l1i.prefetcher: Spatial Region address:        0X3
4360000: system.cpu.l1i.prefetcher: Spatial Region physical address:     0X1DC0
4360000: system.cpu.l1i.prefetcher: Spatial Region offset:       0X17
4428000: system.cpu.l1i.prefetcher: PC:   0X401E00
4428000: system.cpu.l1i.prefetcher: Spatial Region address:        0X3
4428000: system.cpu.l1i.prefetcher: Spatial Region physical address:     0X1E00
4428000: system.cpu.l1i.prefetcher: Spatial Region offset:       0X18
4496000: system.cpu.l1i.prefetcher: PC:   0X401E40
4496000: system.cpu.l1i.prefetcher: Spatial Region address:        0X3
4496000: system.cpu.l1i.prefetcher: Spatial Region physical address:     0X1E40
4496000: system.cpu.l1i.prefetcher: Spatial Region offset:       0X19
4560000: system.cpu.l1i.prefetcher: PC:   0X401F04
4560000: system.cpu.l1i.prefetcher: Spatial Region address:        0X3
4560000: system.cpu.l1i.prefetcher: Spatial Region physical address:     0X1F00
4560000: system.cpu.l1i.prefetcher: Spatial Region offset:       0X1C
4624000: system.cpu.l1i.prefetcher: PC:   0X401F40
4624000: system.cpu.l1i.prefetcher: Spatial Region address:        0X3
4624000: system.cpu.l1i.prefetcher: Spatial Region physical address:     0X1F40
4624000: system.cpu.l1i.prefetcher: Spatial Region offset:       0X1D
4727000: system.cpu.l1i.prefetcher: PC:   0X4022C0
4727000: system.cpu.l1i.prefetcher: Spatial Region address:        0X4
4727000: system.cpu.l1i.prefetcher: Spatial Region physical address:     0X22C0
4727000: system.cpu.l1i.prefetcher: Spatial Region offset:        0XB
4791000: system.cpu.l1i.prefetcher: PC:   0X44C350
4791000: system.cpu.l1i.prefetcher: Spatial Region address:       0X98
4791000: system.cpu.l1i.prefetcher: Spatial Region physical address:    0X4C340
4791000: system.cpu.l1i.prefetcher: Spatial Region offset:        0XD
4855000: system.cpu.l1i.prefetcher: PC:   0X44C380
4855000: system.cpu.l1i.prefetcher: Spatial Region address:       0X98
4855000: system.cpu.l1i.prefetcher: Spatial Region physical address:    0X4C380
4855000: system.cpu.l1i.prefetcher: Spatial Region offset:        0XE
4863000: system.cpu.l1d.prefetcher: PC:   0X44C36C
4863000: system.cpu.l1d.prefetcher: Spatial Region address:      0X17C
4863000: system.cpu.l1d.prefetcher: Spatial Region physical address:    0XBE7A8
4863000: system.cpu.l1d.prefetcher: Spatial Region offset:       0X1E
4925000: system.cpu.l1d.prefetcher: PC:   0X44C370
4925000: system.cpu.l1d.prefetcher: Spatial Region address:      0X17C
4925000: system.cpu.l1d.prefetcher: Spatial Region physical address:    0XBE7C0
4925000: system.cpu.l1d.prefetcher: Spatial Region offset:       0X1F
5057000: system.cpu.l1d.prefetcher: PC:   0X44C36C
5057000: system.cpu.l1d.prefetcher: Spatial Region address:      0X17C
5057000: system.cpu.l1d.prefetcher: Spatial Region physical address:    0XBE620
5057000: system.cpu.l1d.prefetcher: Spatial Region offset:       0X18
5148000: system.cpu.l1d.prefetcher: PC:   0X44C38C
5148000: system.cpu.l1d.prefetcher: Spatial Region address:      0X17C
5148000: system.cpu.l1d.prefetcher: Spatial Region physical address:    0XBE640
5148000: system.cpu.l1d.prefetcher: Spatial Region offset:       0X19
5235000: system.cpu.l1d.prefetcher: PC:   0X402265
5235000: system.cpu.l1d.prefetcher: Spatial Region address:      0X183
5235000: system.cpu.l1d.prefetcher: Spatial Region physical address:    0XC1DC0
5235000: system.cpu.l1d.prefetcher: Spatial Region offset:       0X17
5253000: system.cpu.l1d.prefetcher: PC:   0X44C36C
5253000: system.cpu.l1d.prefetcher: Spatial Region address:      0X17D
5253000: system.cpu.l1d.prefetcher: Spatial Region physical address:    0XBE888
5253000: system.cpu.l1d.prefetcher: Spatial Region offset:        0X2
5402000: system.cpu.l1d.prefetcher: PC:   0X44C36C
5402000: system.cpu.l1d.prefetcher: Spatial Region address:      0X17C
5402000: system.cpu.l1d.prefetcher: Spatial Region physical address:    0XBE4D0
5402000: system.cpu.l1d.prefetcher: Spatial Region offset:       0X13
5534000: system.cpu.l1i.prefetcher: PC:   0X402380
5534000: system.cpu.l1i.prefetcher: Spatial Region address:        0X4
5534000: system.cpu.l1i.prefetcher: Spatial Region physical address:     0X2380
5534000: system.cpu.l1i.prefetcher: Spatial Region offset:        0XE
5608000: system.cpu.l1d.prefetcher: PC:   0X44C36C
5608000: system.cpu.l1d.prefetcher: Spatial Region address:      0X17C
5608000: system.cpu.l1d.prefetcher: Spatial Region physical address:    0XBE770
5608000: system.cpu.l1d.prefetcher: Spatial Region offset:       0X1D
5682000: system.cpu.l1d.prefetcher: PC:   0X44C3B8
5682000: system.cpu.l1d.prefetcher: Spatial Region address:      0X187
5682000: system.cpu.l1d.prefetcher: Spatial Region physical address:    0XC3D80
5682000: system.cpu.l1d.prefetcher: Spatial Region offset:       0X16
5757000: system.cpu.l1d.prefetcher: PC:   0X44C3B8
5757000: system.cpu.l1d.prefetcher: Spatial Region address:      0X187
5757000: system.cpu.l1d.prefetcher: Spatial Region physical address:    0XC3D88
5757000: system.cpu.l1d.prefetcher: Spatial Region offset:       0X16
5809000: system.cpu.l1d.prefetcher: PC:   0X402301
5809000: system.cpu.l1d.prefetcher: Spatial Region address:          0
5809000: system.cpu.l1d.prefetcher: Spatial Region physical address:      0X2E8
5809000: system.cpu.l1d.prefetcher: Spatial Region offset:        0XB
5902000: system.cpu.l1i.prefetcher: PC:   0X4023C0
5902000: system.cpu.l1i.prefetcher: Spatial Region address:        0X4
5902000: system.cpu.l1i.prefetcher: Spatial Region physical address:     0X23C0
5902000: system.cpu.l1i.prefetcher: Spatial Region offset:        0XF
6004000: system.cpu.l1i.prefetcher: PC:   0X421930
6004000: system.cpu.l1i.prefetcher: Spatial Region address:       0X43
6004000: system.cpu.l1i.prefetcher: Spatial Region physical address:    0X21900
6004000: system.cpu.l1i.prefetcher: Spatial Region offset:        0X4
6095000: system.cpu.l1i.prefetcher: PC:   0X421940
6095000: system.cpu.l1i.prefetcher: Spatial Region address:       0X43
6095000: system.cpu.l1i.prefetcher: Spatial Region physical address:    0X21940
6095000: system.cpu.l1i.prefetcher: Spatial Region offset:        0X5
6159000: system.cpu.l1i.prefetcher: PC:   0X421980
6159000: system.cpu.l1i.prefetcher: Spatial Region address:       0X43
6159000: system.cpu.l1i.prefetcher: Spatial Region physical address:    0X21980
6159000: system.cpu.l1i.prefetcher: Spatial Region offset:        0X6
6232000: system.cpu.l1d.prefetcher: PC:   0X402308
6232000: system.cpu.l1d.prefetcher: Spatial Region address:      0X17E
6232000: system.cpu.l1d.prefetcher: Spatial Region physical address:    0XBF0D0
6232000: system.cpu.l1d.prefetcher: Spatial Region offset:        0X3
6245000: system.cpu.l1d.prefetcher: PC:   0X402301
6245000: system.cpu.l1d.prefetcher: Spatial Region address:          0
6245000: system.cpu.l1d.prefetcher: Spatial Region physical address:      0X300
6245000: system.cpu.l1d.prefetcher: Spatial Region offset:        0XC
6337000: system.cpu.l1i.prefetcher: PC:   0X421AA0
6337000: system.cpu.l1i.prefetcher: Spatial Region address:       0X43
6337000: system.cpu.l1i.prefetcher: Spatial Region physical address:    0X21A80
6337000: system.cpu.l1i.prefetcher: Spatial Region offset:        0XA
6428000: system.cpu.l1i.prefetcher: PC:   0X421AC0
6428000: system.cpu.l1i.prefetcher: Spatial Region address:       0X43
6428000: system.cpu.l1i.prefetcher: Spatial Region physical address:    0X21AC0
6428000: system.cpu.l1i.prefetcher: Spatial Region offset:        0XB
6492000: system.cpu.l1i.prefetcher: PC:   0X421B00
6492000: system.cpu.l1i.prefetcher: Spatial Region address:       0X43
6492000: system.cpu.l1i.prefetcher: Spatial Region physical address:    0X21B00
6492000: system.cpu.l1i.prefetcher: Spatial Region offset:        0XC
6584000: system.cpu.l1i.prefetcher: PC:   0X484A30
6584000: system.cpu.l1i.prefetcher: Spatial Region address:      0X109
6584000: system.cpu.l1i.prefetcher: Spatial Region physical address:    0X84A00
6584000: system.cpu.l1i.prefetcher: Spatial Region offset:        0X8
6661000: system.cpu.l1i.prefetcher: PC:   0X484A40
6661000: system.cpu.l1i.prefetcher: Spatial Region address:      0X109
6661000: system.cpu.l1i.prefetcher: Spatial Region physical address:    0X84A40
6661000: system.cpu.l1i.prefetcher: Spatial Region offset:        0X9
6725000: system.cpu.l1i.prefetcher: PC:   0X484A80
6725000: system.cpu.l1i.prefetcher: Spatial Region address:      0X109
6725000: system.cpu.l1i.prefetcher: Spatial Region physical address:    0X84A80
6725000: system.cpu.l1i.prefetcher: Spatial Region offset:        0XA
6817000: system.cpu.l1i.prefetcher: PC:   0X421A40
6817000: system.cpu.l1i.prefetcher: Spatial Region address:       0X43
6817000: system.cpu.l1i.prefetcher: Spatial Region physical address:    0X21A40
6817000: system.cpu.l1i.prefetcher: Spatial Region offset:        0X9
6907000: system.cpu.l1d.prefetcher: PC:   0X402308
6907000: system.cpu.l1d.prefetcher: Spatial Region address:      0X17E
6907000: system.cpu.l1d.prefetcher: Spatial Region physical address:    0XBF0B8
6907000: system.cpu.l1d.prefetcher: Spatial Region offset:        0X2
6908000: system.cpu.l1d.prefetcher: PC:   0X402318
6908000: system.cpu.l1d.prefetcher: Spatial Region address:          0
6908000: system.cpu.l1d.prefetcher: Spatial Region physical address:      0X340
6908000: system.cpu.l1d.prefetcher: Spatial Region offset:        0XD
7013000: system.cpu.l1i.prefetcher: PC:   0X422510
7013000: system.cpu.l1i.prefetcher: Spatial Region address:       0X44
7013000: system.cpu.l1i.prefetcher: Spatial Region physical address:    0X22500
7013000: system.cpu.l1i.prefetcher: Spatial Region offset:       0X14
7104000: system.cpu.l1i.prefetcher: PC:   0X422540
7104000: system.cpu.l1i.prefetcher: Spatial Region address:       0X44
7104000: system.cpu.l1i.prefetcher: Spatial Region physical address:    0X22540
7104000: system.cpu.l1i.prefetcher: Spatial Region offset:       0X15
7168000: system.cpu.l1i.prefetcher: PC:   0X422580
7168000: system.cpu.l1i.prefetcher: Spatial Region address:       0X44
7168000: system.cpu.l1i.prefetcher: Spatial Region physical address:    0X22580
7168000: system.cpu.l1i.prefetcher: Spatial Region offset:       0X16
7236000: system.cpu.l1i.prefetcher: PC:   0X4225C0
7236000: system.cpu.l1i.prefetcher: Spatial Region address:       0X44
7236000: system.cpu.l1i.prefetcher: Spatial Region physical address:    0X225C0
7236000: system.cpu.l1i.prefetcher: Spatial Region offset:       0X17
7304000: system.cpu.l1i.prefetcher: PC:   0X422600
7304000: system.cpu.l1i.prefetcher: Spatial Region address:       0X44
7304000: system.cpu.l1i.prefetcher: Spatial Region physical address:    0X22600
7304000: system.cpu.l1i.prefetcher: Spatial Region offset:       0X18
7396000: system.cpu.l1i.prefetcher: PC:   0X484CD0
7396000: system.cpu.l1i.prefetcher: Spatial Region address:      0X109
7396000: system.cpu.l1i.prefetcher: Spatial Region physical address:    0X84CC0
7396000: system.cpu.l1i.prefetcher: Spatial Region offset:       0X13
7460000: system.cpu.l1i.prefetcher: PC:   0X484D00
7460000: system.cpu.l1i.prefetcher: Spatial Region address:      0X109
7460000: system.cpu.l1i.prefetcher: Spatial Region physical address:    0X84D00
7460000: system.cpu.l1i.prefetcher: Spatial Region offset:       0X14
7526000: system.cpu.l1i.prefetcher: PC:   0X484D40
7526000: system.cpu.l1i.prefetcher: Spatial Region address:      0X109
7526000: system.cpu.l1i.prefetcher: Spatial Region physical address:    0X84D40
7526000: system.cpu.l1i.prefetcher: Spatial Region offset:       0X15
7620000: system.cpu.l1i.prefetcher: PC:   0X4219C0
7620000: system.cpu.l1i.prefetcher: Spatial Region address:       0X43
7620000: system.cpu.l1i.prefetcher: Spatial Region physical address:    0X219C0
7620000: system.cpu.l1i.prefetcher: Spatial Region offset:        0X7
7711000: system.cpu.l1i.prefetcher: PC:   0X421A00
7711000: system.cpu.l1i.prefetcher: Spatial Region address:       0X43
7711000: system.cpu.l1i.prefetcher: Spatial Region physical address:    0X21A00
7711000: system.cpu.l1i.prefetcher: Spatial Region offset:        0X8
7785000: system.cpu.l1d.prefetcher: PC:   0X402318
7785000: system.cpu.l1d.prefetcher: Spatial Region address:          0
7785000: system.cpu.l1d.prefetcher: Spatial Region physical address:      0X388
7785000: system.cpu.l1d.prefetcher: Spatial Region offset:        0XE
7786000: system.cpu.l1d.prefetcher: PC:   0X40231C
7786000: system.cpu.l1d.prefetcher: Spatial Region address:          0
7786000: system.cpu.l1d.prefetcher: Spatial Region physical address:      0X380
7786000: system.cpu.l1d.prefetcher: Spatial Region offset:        0XE
8139000: system.cpu.l1i.prefetcher: PC:   0X4700F0
8139000: system.cpu.l1i.prefetcher: Spatial Region address:       0XE0
8139000: system.cpu.l1i.prefetcher: Spatial Region physical address:    0X700C0
8139000: system.cpu.l1i.prefetcher: Spatial Region offset:        0X3
8216000: system.cpu.l1i.prefetcher: PC:   0X470100
8216000: system.cpu.l1i.prefetcher: Spatial Region address:       0XE0
8216000: system.cpu.l1i.prefetcher: Spatial Region physical address:    0X70100
8216000: system.cpu.l1i.prefetcher: Spatial Region offset:        0X4
8280000: system.cpu.l1i.prefetcher: PC:   0X470140
8280000: system.cpu.l1i.prefetcher: Spatial Region address:       0XE0
8280000: system.cpu.l1i.prefetcher: Spatial Region physical address:    0X70140
8280000: system.cpu.l1i.prefetcher: Spatial Region offset:        0X5
8372000: system.cpu.l1i.prefetcher: PC:   0X422470
8372000: system.cpu.l1i.prefetcher: Spatial Region address:       0X44
8372000: system.cpu.l1i.prefetcher: Spatial Region physical address:    0X22440
8372000: system.cpu.l1i.prefetcher: Spatial Region offset:       0X11
8449000: system.cpu.l1i.prefetcher: PC:   0X422480
8449000: system.cpu.l1i.prefetcher: Spatial Region address:       0X44
8449000: system.cpu.l1i.prefetcher: Spatial Region physical address:    0X22480
8449000: system.cpu.l1i.prefetcher: Spatial Region offset:       0X12
8513000: system.cpu.l1i.prefetcher: PC:   0X4224C0
8513000: system.cpu.l1i.prefetcher: Spatial Region address:       0X44
8513000: system.cpu.l1i.prefetcher: Spatial Region physical address:    0X224C0
8513000: system.cpu.l1i.prefetcher: Spatial Region offset:       0X13
8615000: system.cpu.l1d.prefetcher: PC:   0X402301
8615000: system.cpu.l1d.prefetcher: Spatial Region address:          0
8615000: system.cpu.l1d.prefetcher: Spatial Region physical address:      0X3C0
8615000: system.cpu.l1d.prefetcher: Spatial Region offset:        0XF
8680000: system.cpu.l1i.prefetcher: PC:   0X484C90
8680000: system.cpu.l1i.prefetcher: Spatial Region address:      0X109
8680000: system.cpu.l1i.prefetcher: Spatial Region physical address:    0X84C80
8680000: system.cpu.l1i.prefetcher: Spatial Region offset:       0X12
8766000: system.cpu.l1i.prefetcher: PC:   0X484D80
8766000: system.cpu.l1i.prefetcher: Spatial Region address:      0X109
8766000: system.cpu.l1i.prefetcher: Spatial Region physical address:    0X84D80
8766000: system.cpu.l1i.prefetcher: Spatial Region offset:       0X16
8860000: system.cpu.l1i.prefetcher: PC:   0X422640
8860000: system.cpu.l1i.prefetcher: Spatial Region address:       0X44
8860000: system.cpu.l1i.prefetcher: Spatial Region physical address:    0X22640
8860000: system.cpu.l1i.prefetcher: Spatial Region offset:       0X19
8924000: system.cpu.l1i.prefetcher: PC:   0X422680
8924000: system.cpu.l1i.prefetcher: Spatial Region address:       0X44
8924000: system.cpu.l1i.prefetcher: Spatial Region physical address:    0X22680
8924000: system.cpu.l1i.prefetcher: Spatial Region offset:       0X1A
8992000: system.cpu.l1i.prefetcher: PC:   0X4226C0
8992000: system.cpu.l1i.prefetcher: Spatial Region address:       0X44
8992000: system.cpu.l1i.prefetcher: Spatial Region physical address:    0X226C0
8992000: system.cpu.l1i.prefetcher: Spatial Region offset:       0X1B
9084000: system.cpu.l1i.prefetcher: PC:   0X422340
9084000: system.cpu.l1i.prefetcher: Spatial Region address:       0X44
9084000: system.cpu.l1i.prefetcher: Spatial Region physical address:    0X22340
9084000: system.cpu.l1i.prefetcher: Spatial Region offset:        0XD
9148000: system.cpu.l1i.prefetcher: PC:   0X422380
9148000: system.cpu.l1i.prefetcher: Spatial Region address:       0X44
9148000: system.cpu.l1i.prefetcher: Spatial Region physical address:    0X22380
9148000: system.cpu.l1i.prefetcher: Spatial Region offset:        0XE
9212000: system.cpu.l1i.prefetcher: PC:   0X4223C0
9212000: system.cpu.l1i.prefetcher: Spatial Region address:       0X44
9212000: system.cpu.l1i.prefetcher: Spatial Region physical address:    0X223C0
9212000: system.cpu.l1i.prefetcher: Spatial Region offset:        0XF
9285000: system.cpu.l1d.prefetcher: PC:   0X402308
9285000: system.cpu.l1d.prefetcher: Spatial Region address:      0X17E
9285000: system.cpu.l1d.prefetcher: Spatial Region physical address:    0XBF078
9285000: system.cpu.l1d.prefetcher: Spatial Region offset:        0X1
9286000: system.cpu.l1d.prefetcher: PC:   0X402318
9286000: system.cpu.l1d.prefetcher: Spatial Region address:          0
9286000: system.cpu.l1d.prefetcher: Spatial Region physical address:      0X400
9286000: system.cpu.l1d.prefetcher: Spatial Region offset:       0X10
9387000: system.cpu.l1i.prefetcher: PC:   0X421B40
9387000: system.cpu.l1i.prefetcher: Spatial Region address:       0X43
9387000: system.cpu.l1i.prefetcher: Spatial Region physical address:    0X21B40
9387000: system.cpu.l1i.prefetcher: Spatial Region offset:        0XD
9482000: system.cpu.l1i.prefetcher: PC:   0X421B80
9482000: system.cpu.l1i.prefetcher: Spatial Region address:       0X43
9482000: system.cpu.l1i.prefetcher: Spatial Region physical address:    0X21B80
9482000: system.cpu.l1i.prefetcher: Spatial Region offset:        0XE
9574000: system.cpu.l1i.prefetcher: PC:   0X422320
9574000: system.cpu.l1i.prefetcher: Spatial Region address:       0X44
9574000: system.cpu.l1i.prefetcher: Spatial Region physical address:    0X22300
9574000: system.cpu.l1i.prefetcher: Spatial Region offset:        0XC
9652000: system.cpu.l1i.prefetcher: PC:   0X422400
9652000: system.cpu.l1i.prefetcher: Spatial Region address:       0X44
9652000: system.cpu.l1i.prefetcher: Spatial Region physical address:    0X22400
9652000: system.cpu.l1i.prefetcher: Spatial Region offset:       0X10
9744000: system.cpu.l1i.prefetcher: PC:   0X46E190
9744000: system.cpu.l1i.prefetcher: Spatial Region address:       0XDC
9744000: system.cpu.l1i.prefetcher: Spatial Region physical address:    0X6E180
9744000: system.cpu.l1i.prefetcher: Spatial Region offset:        0X6
9821000: system.cpu.l1i.prefetcher: PC:   0X46E1C0
9821000: system.cpu.l1i.prefetcher: Spatial Region address:       0XDC
9821000: system.cpu.l1i.prefetcher: Spatial Region physical address:    0X6E1C0
9821000: system.cpu.l1i.prefetcher: Spatial Region offset:        0X7
9885000: system.cpu.l1i.prefetcher: PC:   0X46E200
9885000: system.cpu.l1i.prefetcher: Spatial Region address:       0XDC
9885000: system.cpu.l1i.prefetcher: Spatial Region physical address:    0X6E200
9885000: system.cpu.l1i.prefetcher: Spatial Region offset:        0X8
9959000: system.cpu.l1d.prefetcher: PC:   0X402318
9959000: system.cpu.l1d.prefetcher: Spatial Region address:          0
9959000: system.cpu.l1d.prefetcher: Spatial Region physical address:      0X448
9959000: system.cpu.l1d.prefetcher: Spatial Region offset:       0X11
9960000: system.cpu.l1d.prefetcher: PC:   0X40231C
9960000: system.cpu.l1d.prefetcher: Spatial Region address:          0
9960000: system.cpu.l1d.prefetcher: Spatial Region physical address:      0X440
9960000: system.cpu.l1d.prefetcher: Spatial Region offset:       0X11
10064000: system.cpu.l1i.prefetcher: PC:   0X422780
10064000: system.cpu.l1i.prefetcher: Spatial Region address:       0X44
10064000: system.cpu.l1i.prefetcher: Spatial Region physical address:    0X22780
10064000: system.cpu.l1i.prefetcher: Spatial Region offset:       0X1E
10128000: system.cpu.l1i.prefetcher: PC:   0X4227C0
10128000: system.cpu.l1i.prefetcher: Spatial Region address:       0X44
10128000: system.cpu.l1i.prefetcher: Spatial Region physical address:    0X227C0
10128000: system.cpu.l1i.prefetcher: Spatial Region offset:       0X1F
10274000: system.cpu.l1d.prefetcher: PC:   0X402301
10274000: system.cpu.l1d.prefetcher: Spatial Region address:          0
10274000: system.cpu.l1d.prefetcher: Spatial Region physical address:      0X480
10274000: system.cpu.l1d.prefetcher: Spatial Region offset:       0X12
10339000: system.cpu.l1i.prefetcher: PC:   0X46E0D0
10339000: system.cpu.l1i.prefetcher: Spatial Region address:       0XDC
10339000: system.cpu.l1i.prefetcher: Spatial Region physical address:    0X6E0C0
10339000: system.cpu.l1i.prefetcher: Spatial Region offset:        0X3
10403000: system.cpu.l1i.prefetcher: PC:   0X46E100
10403000: system.cpu.l1i.prefetcher: Spatial Region address:       0XDC
10403000: system.cpu.l1i.prefetcher: Spatial Region physical address:    0X6E100
10403000: system.cpu.l1i.prefetcher: Spatial Region offset:        0X4
10467000: system.cpu.l1i.prefetcher: PC:   0X46E140
10467000: system.cpu.l1i.prefetcher: Spatial Region address:       0XDC
10467000: system.cpu.l1i.prefetcher: Spatial Region physical address:    0X6E140
10467000: system.cpu.l1i.prefetcher: Spatial Region offset:        0X5
10559000: system.cpu.l1i.prefetcher: PC:   0X46F9E0
10559000: system.cpu.l1i.prefetcher: Spatial Region address:       0XDF
10559000: system.cpu.l1i.prefetcher: Spatial Region physical address:    0X6F9C0
10559000: system.cpu.l1i.prefetcher: Spatial Region offset:        0X7
10623000: system.cpu.l1i.prefetcher: PC:   0X46FA00
10623000: system.cpu.l1i.prefetcher: Spatial Region address:       0XDF
10623000: system.cpu.l1i.prefetcher: Spatial Region physical address:    0X6FA00
10623000: system.cpu.l1i.prefetcher: Spatial Region offset:        0X8
10687000: system.cpu.l1i.prefetcher: PC:   0X46FA40
10687000: system.cpu.l1i.prefetcher: Spatial Region address:       0XDF
10687000: system.cpu.l1i.prefetcher: Spatial Region physical address:    0X6FA40
10687000: system.cpu.l1i.prefetcher: Spatial Region offset:        0X9
10784000: system.cpu.l1i.prefetcher: PC:   0X422700
10784000: system.cpu.l1i.prefetcher: Spatial Region address:       0X44
10784000: system.cpu.l1i.prefetcher: Spatial Region physical address:    0X22700
10784000: system.cpu.l1i.prefetcher: Spatial Region offset:       0X1C
10852000: system.cpu.l1i.prefetcher: PC:   0X422740
10852000: system.cpu.l1i.prefetcher: Spatial Region address:       0X44
10852000: system.cpu.l1i.prefetcher: Spatial Region physical address:    0X22740
10852000: system.cpu.l1i.prefetcher: Spatial Region offset:       0X1D
10927000: system.cpu.l1i.prefetcher: PC:   0X422800
10927000: system.cpu.l1i.prefetcher: Spatial Region address:       0X45
10927000: system.cpu.l1i.prefetcher: Spatial Region physical address:    0X22800
10927000: system.cpu.l1i.prefetcher: Spatial Region offset:          0
11000000: system.cpu.l1d.prefetcher: PC:   0X402308
11000000: system.cpu.l1d.prefetcher: Spatial Region address:      0X17E
11000000: system.cpu.l1d.prefetcher: Spatial Region physical address:    0XBF038
11000000: system.cpu.l1d.prefetcher: Spatial Region offset:          0
11001000: system.cpu.l1d.prefetcher: PC:   0X402318
11001000: system.cpu.l1d.prefetcher: Spatial Region address:          0
11001000: system.cpu.l1d.prefetcher: Spatial Region physical address:      0X4C0
11001000: system.cpu.l1d.prefetcher: Spatial Region offset:       0X13
11100000: system.cpu.l1i.prefetcher: PC:   0X422840
11100000: system.cpu.l1i.prefetcher: Spatial Region address:       0X45
11100000: system.cpu.l1i.prefetcher: Spatial Region physical address:    0X22840
11100000: system.cpu.l1i.prefetcher: Spatial Region offset:        0X1
11298000: system.cpu.l1i.prefetcher: PC:   0X46E090
11298000: system.cpu.l1i.prefetcher: Spatial Region address:       0XDC
11298000: system.cpu.l1i.prefetcher: Spatial Region physical address:    0X6E080
11298000: system.cpu.l1i.prefetcher: Spatial Region offset:        0X2
11391000: system.cpu.l1d.prefetcher: PC:   0X402318
11391000: system.cpu.l1d.prefetcher: Spatial Region address:          0
11391000: system.cpu.l1d.prefetcher: Spatial Region physical address:      0X508
11391000: system.cpu.l1d.prefetcher: Spatial Region offset:       0X14
11392000: system.cpu.l1d.prefetcher: PC:   0X40231C
11392000: system.cpu.l1d.prefetcher: Spatial Region address:          0
11392000: system.cpu.l1d.prefetcher: Spatial Region physical address:      0X500
11392000: system.cpu.l1d.prefetcher: Spatial Region offset:       0X14
11518000: system.cpu.l1i.prefetcher: PC:   0X40243B
11518000: system.cpu.l1i.prefetcher: Spatial Region address:        0X4
11518000: system.cpu.l1i.prefetcher: Spatial Region physical address:     0X2400
11518000: system.cpu.l1i.prefetcher: Spatial Region offset:       0X10
11609000: system.cpu.l1i.prefetcher: PC:   0X402440
11609000: system.cpu.l1i.prefetcher: Spatial Region address:        0X4
11609000: system.cpu.l1i.prefetcher: Spatial Region physical address:     0X2440
11609000: system.cpu.l1i.prefetcher: Spatial Region offset:       0X11
11673000: system.cpu.l1i.prefetcher: PC:   0X402A90
11673000: system.cpu.l1i.prefetcher: Spatial Region address:        0X5
11673000: system.cpu.l1i.prefetcher: Spatial Region physical address:     0X2A80
11673000: system.cpu.l1i.prefetcher: Spatial Region offset:        0XA
11737000: system.cpu.l1i.prefetcher: PC:   0X402AC0
11737000: system.cpu.l1i.prefetcher: Spatial Region address:        0X5
11737000: system.cpu.l1i.prefetcher: Spatial Region physical address:     0X2AC0
11737000: system.cpu.l1i.prefetcher: Spatial Region offset:        0XB
11762000: system.cpu.l1d.prefetcher: PC:   0X402AA9
11762000: system.cpu.l1d.prefetcher: Spatial Region address:      0X180
11762000: system.cpu.l1d.prefetcher: Spatial Region physical address:    0XC0180
11762000: system.cpu.l1d.prefetcher: Spatial Region offset:        0X6
11801000: system.cpu.l1i.prefetcher: PC:   0X402B00
11801000: system.cpu.l1i.prefetcher: Spatial Region address:        0X5
11801000: system.cpu.l1i.prefetcher: Spatial Region physical address:     0X2B00
11801000: system.cpu.l1i.prefetcher: Spatial Region offset:        0XC
11868000: system.cpu.l1i.prefetcher: PC:   0X402B40
11868000: system.cpu.l1i.prefetcher: Spatial Region address:        0X5
11868000: system.cpu.l1i.prefetcher: Spatial Region physical address:     0X2B40
11868000: system.cpu.l1i.prefetcher: Spatial Region offset:        0XD
11869000: system.cpu.l1d.prefetcher: PC:   0X402AED
11869000: system.cpu.l1d.prefetcher: Spatial Region address:          0
11869000: system.cpu.l1d.prefetcher: Spatial Region physical address:       0X40
11869000: system.cpu.l1d.prefetcher: Spatial Region offset:        0X1
11932000: system.cpu.l1i.prefetcher: PC:   0X402B80
11932000: system.cpu.l1i.prefetcher: Spatial Region address:        0X5
11932000: system.cpu.l1i.prefetcher: Spatial Region physical address:     0X2B80
11932000: system.cpu.l1i.prefetcher: Spatial Region offset:        0XE
12008000: system.cpu.l1d.prefetcher: PC:   0X402AF2
12008000: system.cpu.l1d.prefetcher: Spatial Region address:          0
12008000: system.cpu.l1d.prefetcher: Spatial Region physical address:       0XA8
12008000: system.cpu.l1d.prefetcher: Spatial Region offset:        0X2
12009000: system.cpu.l1d.prefetcher: PC:   0X402AF6
12009000: system.cpu.l1d.prefetcher: Spatial Region address:          0
12009000: system.cpu.l1d.prefetcher: Spatial Region physical address:       0XA0
12009000: system.cpu.l1d.prefetcher: Spatial Region offset:        0X2
12079000: system.cpu.l1d.prefetcher: PC:   0X402AF2
12079000: system.cpu.l1d.prefetcher: Spatial Region address:          0
12079000: system.cpu.l1d.prefetcher: Spatial Region physical address:       0XE0
12079000: system.cpu.l1d.prefetcher: Spatial Region offset:        0X3
12080000: system.cpu.l1d.prefetcher: PC:   0X402AF6
12080000: system.cpu.l1d.prefetcher: Spatial Region address:          0
12080000: system.cpu.l1d.prefetcher: Spatial Region physical address:       0XD8
12080000: system.cpu.l1d.prefetcher: Spatial Region offset:        0X3
12150000: system.cpu.l1d.prefetcher: PC:   0X402AF2
12150000: system.cpu.l1d.prefetcher: Spatial Region address:          0
12150000: system.cpu.l1d.prefetcher: Spatial Region physical address:      0X118
12150000: system.cpu.l1d.prefetcher: Spatial Region offset:        0X4
12151000: system.cpu.l1d.prefetcher: PC:   0X402AF6
12151000: system.cpu.l1d.prefetcher: Spatial Region address:          0
12151000: system.cpu.l1d.prefetcher: Spatial Region physical address:      0X110
12151000: system.cpu.l1d.prefetcher: Spatial Region offset:        0X4
12221000: system.cpu.l1d.prefetcher: PC:   0X402AF2
12221000: system.cpu.l1d.prefetcher: Spatial Region address:          0
12221000: system.cpu.l1d.prefetcher: Spatial Region physical address:      0X150
12221000: system.cpu.l1d.prefetcher: Spatial Region offset:        0X5
12222000: system.cpu.l1d.prefetcher: PC:   0X402AF6
12222000: system.cpu.l1d.prefetcher: Spatial Region address:          0
12222000: system.cpu.l1d.prefetcher: Spatial Region physical address:      0X148
12222000: system.cpu.l1d.prefetcher: Spatial Region offset:        0X5
12292000: system.cpu.l1d.prefetcher: PC:   0X402AF2
12292000: system.cpu.l1d.prefetcher: Spatial Region address:          0
12292000: system.cpu.l1d.prefetcher: Spatial Region physical address:      0X188
12292000: system.cpu.l1d.prefetcher: Spatial Region offset:        0X6
12293000: system.cpu.l1d.prefetcher: PC:   0X402AF6
12293000: system.cpu.l1d.prefetcher: Spatial Region address:          0
12293000: system.cpu.l1d.prefetcher: Spatial Region physical address:      0X180
12293000: system.cpu.l1d.prefetcher: Spatial Region offset:        0X6
12363000: system.cpu.l1d.prefetcher: PC:   0X402AF2
12363000: system.cpu.l1d.prefetcher: Spatial Region address:          0
12363000: system.cpu.l1d.prefetcher: Spatial Region physical address:      0X1C0
12363000: system.cpu.l1d.prefetcher: Spatial Region offset:        0X7
12430000: system.cpu.l1d.prefetcher: PC:   0X402B14
12430000: system.cpu.l1d.prefetcher: Spatial Region address:      0X180
12430000: system.cpu.l1d.prefetcher: Spatial Region physical address:    0XC0220
12430000: system.cpu.l1d.prefetcher: Spatial Region offset:        0X8
12520000: system.cpu.l1i.prefetcher: PC:   0X402BC0
12520000: system.cpu.l1i.prefetcher: Spatial Region address:        0X5
12520000: system.cpu.l1i.prefetcher: Spatial Region physical address:     0X2BC0
12520000: system.cpu.l1i.prefetcher: Spatial Region offset:        0XF
12594000: system.cpu.l1i.prefetcher: PC:   0X402C00
12594000: system.cpu.l1i.prefetcher: Spatial Region address:        0X5
12594000: system.cpu.l1i.prefetcher: Spatial Region physical address:     0X2C00
12594000: system.cpu.l1i.prefetcher: Spatial Region offset:       0X10
12658000: system.cpu.l1i.prefetcher: PC:   0X449200
12658000: system.cpu.l1i.prefetcher: Spatial Region address:       0X92
12658000: system.cpu.l1i.prefetcher: Spatial Region physical address:    0X49200
12658000: system.cpu.l1i.prefetcher: Spatial Region offset:        0X8
12735000: system.cpu.l1i.prefetcher: PC:   0X449240
12735000: system.cpu.l1i.prefetcher: Spatial Region address:       0X92
12735000: system.cpu.l1i.prefetcher: Spatial Region physical address:    0X49240
12735000: system.cpu.l1i.prefetcher: Spatial Region offset:        0X9
12746000: system.cpu.l1d.prefetcher: PC:   0X44920E
12746000: system.cpu.l1d.prefetcher: Spatial Region address:      0X183
12746000: system.cpu.l1d.prefetcher: Spatial Region physical address:    0XC1F38
12746000: system.cpu.l1d.prefetcher: Spatial Region offset:       0X1C
12799000: system.cpu.l1i.prefetcher: PC:   0X449280
12799000: system.cpu.l1i.prefetcher: Spatial Region address:       0X92
12799000: system.cpu.l1i.prefetcher: Spatial Region physical address:    0X49280
12799000: system.cpu.l1i.prefetcher: Spatial Region offset:        0XA
12867000: system.cpu.l1i.prefetcher: PC:   0X4492C0
12867000: system.cpu.l1i.prefetcher: Spatial Region address:       0X92
12867000: system.cpu.l1i.prefetcher: Spatial Region physical address:    0X492C0
12867000: system.cpu.l1i.prefetcher: Spatial Region offset:        0XB
12931000: system.cpu.l1i.prefetcher: PC:   0X471500
12931000: system.cpu.l1i.prefetcher: Spatial Region address:       0XE2
12931000: system.cpu.l1i.prefetcher: Spatial Region physical address:    0X71500
12931000: system.cpu.l1i.prefetcher: Spatial Region offset:       0X14
12995000: system.cpu.l1i.prefetcher: PC:   0X471540
12995000: system.cpu.l1i.prefetcher: Spatial Region address:       0XE2
12995000: system.cpu.l1i.prefetcher: Spatial Region physical address:    0X71540
12995000: system.cpu.l1i.prefetcher: Spatial Region offset:       0X15
13064000: system.cpu.l1i.prefetcher: PC:   0X471580
13064000: system.cpu.l1i.prefetcher: Spatial Region address:       0XE2
13064000: system.cpu.l1i.prefetcher: Spatial Region physical address:    0X71580
13064000: system.cpu.l1i.prefetcher: Spatial Region offset:       0X16
13140000: system.cpu.l1i.prefetcher: PC:   0X449300
13140000: system.cpu.l1i.prefetcher: Spatial Region address:       0X92
13140000: system.cpu.l1i.prefetcher: Spatial Region physical address:    0X49300
13140000: system.cpu.l1i.prefetcher: Spatial Region offset:        0XC
13257000: system.cpu.l1i.prefetcher: PC:   0X4715C0
13257000: system.cpu.l1i.prefetcher: Spatial Region address:       0XE2
13257000: system.cpu.l1i.prefetcher: Spatial Region physical address:    0X715C0
13257000: system.cpu.l1i.prefetcher: Spatial Region offset:       0X17
13332000: system.cpu.l1i.prefetcher: PC:   0X449340
13332000: system.cpu.l1i.prefetcher: Spatial Region address:       0X92
13332000: system.cpu.l1i.prefetcher: Spatial Region physical address:    0X49340
13332000: system.cpu.l1i.prefetcher: Spatial Region offset:        0XD
13405000: system.cpu.l1d.prefetcher: PC:   0X402B50
13405000: system.cpu.l1d.prefetcher: Spatial Region address:      0X184
13405000: system.cpu.l1d.prefetcher: Spatial Region physical address:    0XC2320
13405000: system.cpu.l1d.prefetcher: Spatial Region offset:        0XC
13459000: system.cpu.l1i.prefetcher: PC:   0X402C40
13459000: system.cpu.l1i.prefetcher: Spatial Region address:        0X5
13459000: system.cpu.l1i.prefetcher: Spatial Region physical address:     0X2C40
13459000: system.cpu.l1i.prefetcher: Spatial Region offset:       0X11
13486000: system.cpu.l1d.prefetcher: PC:   0X402BA2
13486000: system.cpu.l1d.prefetcher: Spatial Region address:      0X180
13486000: system.cpu.l1d.prefetcher: Spatial Region physical address:    0XC0670
13486000: system.cpu.l1d.prefetcher: Spatial Region offset:       0X19
13494000: system.cpu.l1d.prefetcher: PC:   0X402BA9
13494000: system.cpu.l1d.prefetcher: Spatial Region address:      0X184
13494000: system.cpu.l1d.prefetcher: Spatial Region physical address:    0XC2340
13494000: system.cpu.l1d.prefetcher: Spatial Region offset:        0XD
13550000: system.cpu.l1i.prefetcher: PC:   0X401060
13550000: system.cpu.l1i.prefetcher: Spatial Region address:        0X2
13550000: system.cpu.l1i.prefetcher: Spatial Region physical address:     0X1040
13550000: system.cpu.l1i.prefetcher: Spatial Region offset:        0X1
13551000: system.cpu.l1d.prefetcher: PC:   0X402BB0
13551000: system.cpu.l1d.prefetcher: Spatial Region address:      0X184
13551000: system.cpu.l1d.prefetcher: Spatial Region physical address:    0XC2348
13551000: system.cpu.l1d.prefetcher: Spatial Region offset:        0XD
13641000: system.cpu.l1i.prefetcher: PC:   0X401080
13641000: system.cpu.l1i.prefetcher: Spatial Region address:        0X2
13641000: system.cpu.l1i.prefetcher: Spatial Region physical address:     0X1080
13641000: system.cpu.l1i.prefetcher: Spatial Region offset:        0X2
13705000: system.cpu.l1i.prefetcher: PC:   0X445A10
13705000: system.cpu.l1i.prefetcher: Spatial Region address:       0X8B
13705000: system.cpu.l1i.prefetcher: Spatial Region physical address:    0X45A00
13705000: system.cpu.l1i.prefetcher: Spatial Region offset:        0X8
13796000: system.cpu.l1i.prefetcher: PC:   0X445A40
13796000: system.cpu.l1i.prefetcher: Spatial Region address:       0X8B
13796000: system.cpu.l1i.prefetcher: Spatial Region physical address:    0X45A40
13796000: system.cpu.l1i.prefetcher: Spatial Region offset:        0X9
13805000: system.cpu.l1d.prefetcher: PC:   0X445A2B
13805000: system.cpu.l1d.prefetcher: Spatial Region address:      0X178
13805000: system.cpu.l1d.prefetcher: Spatial Region physical address:    0XBC0C0
13805000: system.cpu.l1d.prefetcher: Spatial Region offset:        0X3
13806000: system.cpu.l1d.prefetcher: PC:   0X445A2B
13806000: system.cpu.l1d.prefetcher: Spatial Region address:      0X178
13806000: system.cpu.l1d.prefetcher: Spatial Region physical address:    0XBC0C8
13806000: system.cpu.l1d.prefetcher: Spatial Region offset:        0X3
13860000: system.cpu.l1i.prefetcher: PC:   0X445A80
13860000: system.cpu.l1i.prefetcher: Spatial Region address:       0X8B
13860000: system.cpu.l1i.prefetcher: Spatial Region physical address:    0X45A80
13860000: system.cpu.l1i.prefetcher: Spatial Region offset:        0XA
13930000: system.cpu.l1d.prefetcher: PC:   0X445A33
13930000: system.cpu.l1d.prefetcher: Spatial Region address:      0X18B
13930000: system.cpu.l1d.prefetcher: Spatial Region physical address:    0XC5820
13930000: system.cpu.l1d.prefetcher: Spatial Region offset:          0
13931000: system.cpu.l1d.prefetcher: PC:   0X445A33
13931000: system.cpu.l1d.prefetcher: Spatial Region address:      0X18B
13931000: system.cpu.l1d.prefetcher: Spatial Region physical address:    0XC5828
13931000: system.cpu.l1d.prefetcher: Spatial Region offset:          0
13931000: system.cpu.l1i.prefetcher: PC:   0X445AC0
13931000: system.cpu.l1i.prefetcher: Spatial Region address:       0X8B
13931000: system.cpu.l1i.prefetcher: Spatial Region physical address:    0X45AC0
13931000: system.cpu.l1i.prefetcher: Spatial Region offset:        0XB
14076000: system.cpu.l1i.prefetcher: PC:   0X402C80
14076000: system.cpu.l1i.prefetcher: Spatial Region address:        0X5
14076000: system.cpu.l1i.prefetcher: Spatial Region physical address:     0X2C80
14076000: system.cpu.l1i.prefetcher: Spatial Region offset:       0X12
14077000: system.cpu.l1d.prefetcher: PC:   0X402BD5
14077000: system.cpu.l1d.prefetcher: Spatial Region address:      0X18B
14077000: system.cpu.l1d.prefetcher: Spatial Region physical address:    0XC5888
14077000: system.cpu.l1d.prefetcher: Spatial Region offset:        0X2
14080000: system.cpu.l1d.prefetcher: PC:   0X402BDE
14080000: system.cpu.l1d.prefetcher: Spatial Region address:      0X18B
14080000: system.cpu.l1d.prefetcher: Spatial Region physical address:    0XC5880
14080000: system.cpu.l1d.prefetcher: Spatial Region offset:        0X2
14175000: system.cpu.l1i.prefetcher: PC:   0X402CC0
14175000: system.cpu.l1i.prefetcher: Spatial Region address:        0X5
14175000: system.cpu.l1i.prefetcher: Spatial Region physical address:     0X2CC0
14175000: system.cpu.l1i.prefetcher: Spatial Region offset:       0X13
14253000: system.cpu.l1d.prefetcher: PC:   0X402C14
14253000: system.cpu.l1d.prefetcher: Spatial Region address:      0X184
14253000: system.cpu.l1d.prefetcher: Spatial Region physical address:    0XC2720
14253000: system.cpu.l1d.prefetcher: Spatial Region offset:       0X1C
14262000: system.cpu.l1d.prefetcher: PC:   0X402C3F
14262000: system.cpu.l1d.prefetcher: Spatial Region address:      0X182
14262000: system.cpu.l1d.prefetcher: Spatial Region physical address:    0XC12B8
14262000: system.cpu.l1d.prefetcher: Spatial Region offset:        0XA
14267000: system.cpu.l1i.prefetcher: PC:   0X402D00
14267000: system.cpu.l1i.prefetcher: Spatial Region address:        0X5
14267000: system.cpu.l1i.prefetcher: Spatial Region physical address:     0X2D00
14267000: system.cpu.l1i.prefetcher: Spatial Region offset:       0X14
14346000: system.cpu.l1d.prefetcher: PC:   0X402C65
14346000: system.cpu.l1d.prefetcher: Spatial Region address:      0X182
14346000: system.cpu.l1d.prefetcher: Spatial Region physical address:    0XC1290
14346000: system.cpu.l1d.prefetcher: Spatial Region offset:        0XA
14392000: system.cpu.l1i.prefetcher: PC:   0X402480
14392000: system.cpu.l1i.prefetcher: Spatial Region address:        0X4
14392000: system.cpu.l1i.prefetcher: Spatial Region physical address:     0X2480
14392000: system.cpu.l1i.prefetcher: Spatial Region offset:       0X12
14400000: system.cpu.l1d.prefetcher: PC:   0X402446
14400000: system.cpu.l1d.prefetcher: Spatial Region address:      0X18B
14400000: system.cpu.l1d.prefetcher: Spatial Region physical address:    0XC58C8
14400000: system.cpu.l1d.prefetcher: Spatial Region offset:        0X3
14456000: system.cpu.l1i.prefetcher: PC:   0X4026BE
14456000: system.cpu.l1i.prefetcher: Spatial Region address:        0X4
14456000: system.cpu.l1i.prefetcher: Spatial Region physical address:     0X2680
14456000: system.cpu.l1i.prefetcher: Spatial Region offset:       0X1A
14520000: system.cpu.l1i.prefetcher: PC:   0X4026C0
14520000: system.cpu.l1i.prefetcher: Spatial Region address:        0X4
14520000: system.cpu.l1i.prefetcher: Spatial Region physical address:     0X26C0
14520000: system.cpu.l1i.prefetcher: Spatial Region offset:       0X1B
14584000: system.cpu.l1i.prefetcher: PC:   0X402700
14584000: system.cpu.l1i.prefetcher: Spatial Region address:        0X4
14584000: system.cpu.l1i.prefetcher: Spatial Region physical address:     0X2700
14584000: system.cpu.l1i.prefetcher: Spatial Region offset:       0X1C
14648000: system.cpu.l1i.prefetcher: PC:   0X44E2E0
14648000: system.cpu.l1i.prefetcher: Spatial Region address:       0X9C
14648000: system.cpu.l1i.prefetcher: Spatial Region physical address:    0X4E2C0
14648000: system.cpu.l1i.prefetcher: Spatial Region offset:        0XB
14739000: system.cpu.l1i.prefetcher: PC:   0X44E300
14739000: system.cpu.l1i.prefetcher: Spatial Region address:       0X9C
14739000: system.cpu.l1i.prefetcher: Spatial Region physical address:    0X4E300
14739000: system.cpu.l1i.prefetcher: Spatial Region offset:        0XC
14755000: system.cpu.l1d.prefetcher: PC:   0X44E2F4
14755000: system.cpu.l1d.prefetcher: Spatial Region address:      0X187
14755000: system.cpu.l1d.prefetcher: Spatial Region physical address:    0XC3B28
14755000: system.cpu.l1d.prefetcher: Spatial Region offset:        0XC
14803000: system.cpu.l1i.prefetcher: PC:   0X4712B0
14803000: system.cpu.l1i.prefetcher: Spatial Region address:       0XE2
14803000: system.cpu.l1i.prefetcher: Spatial Region physical address:    0X71280
14803000: system.cpu.l1i.prefetcher: Spatial Region offset:        0XA
14867000: system.cpu.l1i.prefetcher: PC:   0X4712C0
14867000: system.cpu.l1i.prefetcher: Spatial Region address:       0XE2
14867000: system.cpu.l1i.prefetcher: Spatial Region physical address:    0X712C0
14867000: system.cpu.l1i.prefetcher: Spatial Region offset:        0XB
14935000: system.cpu.l1i.prefetcher: PC:   0X471300
14935000: system.cpu.l1i.prefetcher: Spatial Region address:       0XE2
14935000: system.cpu.l1i.prefetcher: Spatial Region physical address:    0X71300
14935000: system.cpu.l1i.prefetcher: Spatial Region offset:        0XC
15003000: system.cpu.l1i.prefetcher: PC:   0X44E340
15003000: system.cpu.l1i.prefetcher: Spatial Region address:       0X9C
15003000: system.cpu.l1i.prefetcher: Spatial Region physical address:    0X4E340
15003000: system.cpu.l1i.prefetcher: Spatial Region offset:        0XD
15009000: system.cpu.l1d.prefetcher: PC:   0X44E30E
15009000: system.cpu.l1d.prefetcher: Spatial Region address:      0X187
15009000: system.cpu.l1d.prefetcher: Spatial Region physical address:    0XC3BF2
15009000: system.cpu.l1d.prefetcher: Spatial Region offset:        0XF
15067000: system.cpu.l1i.prefetcher: PC:   0X44E380
15067000: system.cpu.l1i.prefetcher: Spatial Region address:       0X9C
15067000: system.cpu.l1i.prefetcher: Spatial Region physical address:    0X4E380
15067000: system.cpu.l1i.prefetcher: Spatial Region offset:        0XE
15137000: system.cpu.l1i.prefetcher: PC:   0X44E3C0
15137000: system.cpu.l1i.prefetcher: Spatial Region address:       0X9C
15137000: system.cpu.l1i.prefetcher: Spatial Region physical address:    0X4E3C0
15137000: system.cpu.l1i.prefetcher: Spatial Region offset:        0XF
15310000: system.cpu.l1i.prefetcher: PC:   0X44E400
15310000: system.cpu.l1i.prefetcher: Spatial Region address:       0X9C
15310000: system.cpu.l1i.prefetcher: Spatial Region physical address:    0X4E400
15310000: system.cpu.l1i.prefetcher: Spatial Region offset:       0X10
15378000: system.cpu.l1i.prefetcher: PC:   0X402740
15378000: system.cpu.l1i.prefetcher: Spatial Region address:        0X4
15378000: system.cpu.l1i.prefetcher: Spatial Region physical address:     0X2740
15378000: system.cpu.l1i.prefetcher: Spatial Region offset:       0X1D
15473000: system.cpu.l1i.prefetcher: PC:   0X4024C0
15473000: system.cpu.l1i.prefetcher: Spatial Region address:        0X4
15473000: system.cpu.l1i.prefetcher: Spatial Region physical address:     0X24C0
15473000: system.cpu.l1i.prefetcher: Spatial Region offset:       0X13
15476000: system.cpu.l1d.prefetcher: PC:   0X402470
15476000: system.cpu.l1d.prefetcher: Spatial Region address:      0X17D
15476000: system.cpu.l1d.prefetcher: Spatial Region physical address:    0XBEF80
15476000: system.cpu.l1d.prefetcher: Spatial Region offset:       0X1E
15537000: system.cpu.l1i.prefetcher: PC:   0X402500
15537000: system.cpu.l1i.prefetcher: Spatial Region address:        0X4
15537000: system.cpu.l1i.prefetcher: Spatial Region physical address:     0X2500
15537000: system.cpu.l1i.prefetcher: Spatial Region offset:       0X14
15619000: system.cpu.l1i.prefetcher: PC:   0X402540
15619000: system.cpu.l1i.prefetcher: Spatial Region address:        0X4
15619000: system.cpu.l1i.prefetcher: Spatial Region physical address:     0X2540
15619000: system.cpu.l1i.prefetcher: Spatial Region offset:       0X15
15932000: system.cpu.l1i.prefetcher: PC:   0X44E440
15932000: system.cpu.l1i.prefetcher: Spatial Region address:       0X9C
15932000: system.cpu.l1i.prefetcher: Spatial Region physical address:    0X4E440
15932000: system.cpu.l1i.prefetcher: Spatial Region offset:       0X11
16011000: system.cpu.l1i.prefetcher: PC:   0X44E480
16011000: system.cpu.l1i.prefetcher: Spatial Region address:       0X9C
16011000: system.cpu.l1i.prefetcher: Spatial Region physical address:    0X4E480
16011000: system.cpu.l1i.prefetcher: Spatial Region offset:       0X12
16016000: system.cpu.l1d.prefetcher: PC:   0X44E450
16016000: system.cpu.l1d.prefetcher: Spatial Region address:      0X181
16016000: system.cpu.l1d.prefetcher: Spatial Region physical address:    0XC0A68
16016000: system.cpu.l1d.prefetcher: Spatial Region offset:        0X9
16075000: system.cpu.l1i.prefetcher: PC:   0X44E4C0
16075000: system.cpu.l1i.prefetcher: Spatial Region address:       0X9C
16075000: system.cpu.l1i.prefetcher: Spatial Region physical address:    0X4E4C0
16075000: system.cpu.l1i.prefetcher: Spatial Region offset:       0X13
16170000: system.cpu.l1i.prefetcher: PC:   0X44C880
16170000: system.cpu.l1i.prefetcher: Spatial Region address:       0X99
16170000: system.cpu.l1i.prefetcher: Spatial Region physical address:    0X4C880
16170000: system.cpu.l1i.prefetcher: Spatial Region offset:        0X2
16184000: system.cpu.l1d.prefetcher: PC:   0X44C7F0
16184000: system.cpu.l1d.prefetcher: Spatial Region address:      0X187
16184000: system.cpu.l1d.prefetcher: Spatial Region physical address:    0XC3C78
16184000: system.cpu.l1d.prefetcher: Spatial Region offset:       0X11
16247000: system.cpu.l1i.prefetcher: PC:   0X47BBC0
16247000: system.cpu.l1i.prefetcher: Spatial Region address:       0XF7
16247000: system.cpu.l1i.prefetcher: Spatial Region physical address:    0X7BBC0
16247000: system.cpu.l1i.prefetcher: Spatial Region offset:        0XF
16324000: system.cpu.l1i.prefetcher: PC:   0X47BC00
16324000: system.cpu.l1i.prefetcher: Spatial Region address:       0XF7
16324000: system.cpu.l1i.prefetcher: Spatial Region physical address:    0X7BC00
16324000: system.cpu.l1i.prefetcher: Spatial Region offset:       0X10
16393000: system.cpu.l1d.prefetcher: PC:   0X47BBD1
16393000: system.cpu.l1d.prefetcher: Spatial Region address:      0X18D
16393000: system.cpu.l1d.prefetcher: Spatial Region physical address:    0XC6C58
16393000: system.cpu.l1d.prefetcher: Spatial Region offset:       0X11
16393000: system.cpu.l1i.prefetcher: PC:   0X47BC40
16393000: system.cpu.l1i.prefetcher: Spatial Region address:       0XF7
16393000: system.cpu.l1i.prefetcher: Spatial Region physical address:    0X7BC40
16393000: system.cpu.l1i.prefetcher: Spatial Region offset:       0X11
16471000: system.cpu.l1i.prefetcher: PC:   0X47BC80
16471000: system.cpu.l1i.prefetcher: Spatial Region address:       0XF7
16471000: system.cpu.l1i.prefetcher: Spatial Region physical address:    0X7BC80
16471000: system.cpu.l1i.prefetcher: Spatial Region offset:       0X12
16559000: system.cpu.l1i.prefetcher: PC:   0X47BCC0
16559000: system.cpu.l1i.prefetcher: Spatial Region address:       0XF7
16559000: system.cpu.l1i.prefetcher: Spatial Region physical address:    0X7BCC0
16559000: system.cpu.l1i.prefetcher: Spatial Region offset:       0X13
16645000: system.cpu.l1d.prefetcher: PC:   0X47BC27
16645000: system.cpu.l1d.prefetcher: Spatial Region address:      0X18D
16645000: system.cpu.l1d.prefetcher: Spatial Region physical address:    0XC6C8D
16645000: system.cpu.l1d.prefetcher: Spatial Region offset:       0X12
16882000: system.cpu.l1i.prefetcher: PC:   0X47BD00
16882000: system.cpu.l1i.prefetcher: Spatial Region address:       0XF7
16882000: system.cpu.l1i.prefetcher: Spatial Region physical address:    0X7BD00
16882000: system.cpu.l1i.prefetcher: Spatial Region offset:       0X14
16946000: system.cpu.l1i.prefetcher: PC:   0X41EFC0
16946000: system.cpu.l1i.prefetcher: Spatial Region address:       0X3D
16946000: system.cpu.l1i.prefetcher: Spatial Region physical address:    0X1EFC0
16946000: system.cpu.l1i.prefetcher: Spatial Region offset:       0X1F
17023000: system.cpu.l1i.prefetcher: PC:   0X41F000
17023000: system.cpu.l1i.prefetcher: Spatial Region address:       0X3E
17023000: system.cpu.l1i.prefetcher: Spatial Region physical address:    0X1F000
17023000: system.cpu.l1i.prefetcher: Spatial Region offset:          0
17029000: system.cpu.l1d.prefetcher: PC:   0X41EFC6
17029000: system.cpu.l1d.prefetcher: Spatial Region address:      0X17E
17029000: system.cpu.l1d.prefetcher: Spatial Region physical address:    0XBF790
17029000: system.cpu.l1d.prefetcher: Spatial Region offset:       0X1E
17087000: system.cpu.l1i.prefetcher: PC:   0X41F040
17087000: system.cpu.l1i.prefetcher: Spatial Region address:       0X3E
17087000: system.cpu.l1i.prefetcher: Spatial Region physical address:    0X1F040
17087000: system.cpu.l1i.prefetcher: Spatial Region offset:        0X1
17122000: system.cpu.l1d.prefetcher: PC:   0X41EFCD
17122000: system.cpu.l1d.prefetcher: Spatial Region address:      0X18D
17122000: system.cpu.l1d.prefetcher: Spatial Region physical address:    0XC6C38
17122000: system.cpu.l1d.prefetcher: Spatial Region offset:       0X10
17123000: system.cpu.l1d.prefetcher: PC:   0X41EFD1
17123000: system.cpu.l1d.prefetcher: Spatial Region address:      0X18D
17123000: system.cpu.l1d.prefetcher: Spatial Region physical address:    0XC6C30
17123000: system.cpu.l1d.prefetcher: Spatial Region offset:       0X10
17178000: system.cpu.l1i.prefetcher: PC:   0X41F130
17178000: system.cpu.l1i.prefetcher: Spatial Region address:       0X3E
17178000: system.cpu.l1i.prefetcher: Spatial Region physical address:    0X1F100
17178000: system.cpu.l1i.prefetcher: Spatial Region offset:        0X4
17242000: system.cpu.l1i.prefetcher: PC:   0X41F140
17242000: system.cpu.l1i.prefetcher: Spatial Region address:       0X3E
17242000: system.cpu.l1i.prefetcher: Spatial Region physical address:    0X1F140
17242000: system.cpu.l1i.prefetcher: Spatial Region offset:        0X5
17306000: system.cpu.l1i.prefetcher: PC:   0X41EA00
17306000: system.cpu.l1i.prefetcher: Spatial Region address:       0X3D
17306000: system.cpu.l1i.prefetcher: Spatial Region physical address:    0X1EA00
17306000: system.cpu.l1i.prefetcher: Spatial Region offset:        0X8
17370000: system.cpu.l1i.prefetcher: PC:   0X41EA40
17370000: system.cpu.l1i.prefetcher: Spatial Region address:       0X3D
17370000: system.cpu.l1i.prefetcher: Spatial Region physical address:    0X1EA40
17370000: system.cpu.l1i.prefetcher: Spatial Region offset:        0X9
17375000: system.cpu.l1d.prefetcher: PC:   0X41EA04
17375000: system.cpu.l1d.prefetcher: Spatial Region address:      0X17E
17375000: system.cpu.l1d.prefetcher: Spatial Region physical address:    0XBF6E4
17375000: system.cpu.l1d.prefetcher: Spatial Region offset:       0X1B
17434000: system.cpu.l1i.prefetcher: PC:   0X41EA80
17434000: system.cpu.l1i.prefetcher: Spatial Region address:       0X3D
17434000: system.cpu.l1i.prefetcher: Spatial Region physical address:    0X1EA80
17434000: system.cpu.l1i.prefetcher: Spatial Region offset:        0XA
17525000: system.cpu.l1i.prefetcher: PC:   0X41EB50
17525000: system.cpu.l1i.prefetcher: Spatial Region address:       0X3D
17525000: system.cpu.l1i.prefetcher: Spatial Region physical address:    0X1EB40
17525000: system.cpu.l1i.prefetcher: Spatial Region offset:        0XD
17589000: system.cpu.l1i.prefetcher: PC:   0X41EB80
17589000: system.cpu.l1i.prefetcher: Spatial Region address:       0X3D
17589000: system.cpu.l1i.prefetcher: Spatial Region physical address:    0X1EB80
17589000: system.cpu.l1i.prefetcher: Spatial Region offset:        0XE
17653000: system.cpu.l1i.prefetcher: PC:   0X41DFD0
17653000: system.cpu.l1i.prefetcher: Spatial Region address:       0X3B
17653000: system.cpu.l1i.prefetcher: Spatial Region physical address:    0X1DFC0
17653000: system.cpu.l1i.prefetcher: Spatial Region offset:       0X1F
17730000: system.cpu.l1i.prefetcher: PC:   0X41E000
17730000: system.cpu.l1i.prefetcher: Spatial Region address:       0X3C
17730000: system.cpu.l1i.prefetcher: Spatial Region physical address:    0X1E000
17730000: system.cpu.l1i.prefetcher: Spatial Region offset:          0
17794000: system.cpu.l1i.prefetcher: PC:   0X41E040
17794000: system.cpu.l1i.prefetcher: Spatial Region address:       0X3C
17794000: system.cpu.l1i.prefetcher: Spatial Region physical address:    0X1E040
17794000: system.cpu.l1i.prefetcher: Spatial Region offset:        0X1
17801000: system.cpu.l1d.prefetcher: PC:   0X41E001
17801000: system.cpu.l1d.prefetcher: Spatial Region address:      0X18B
17801000: system.cpu.l1d.prefetcher: Spatial Region physical address:    0XC5858
17801000: system.cpu.l1d.prefetcher: Spatial Region offset:        0X1
17810000: system.cpu.l1d.prefetcher: PC:   0X41E01D
17810000: system.cpu.l1d.prefetcher: Spatial Region address:      0X17F
17810000: system.cpu.l1d.prefetcher: Spatial Region physical address:    0XBF818
17810000: system.cpu.l1d.prefetcher: Spatial Region offset:          0
17862000: system.cpu.l1i.prefetcher: PC:   0X41E080
17862000: system.cpu.l1i.prefetcher: Spatial Region address:       0X3C
17862000: system.cpu.l1i.prefetcher: Spatial Region physical address:    0X1E080
17862000: system.cpu.l1i.prefetcher: Spatial Region offset:        0X2
17876000: system.cpu.l1d.prefetcher: PC:   0X41E01D
17876000: system.cpu.l1d.prefetcher: Spatial Region address:      0X17F
17876000: system.cpu.l1d.prefetcher: Spatial Region physical address:    0XBF810
17876000: system.cpu.l1d.prefetcher: Spatial Region offset:          0
17961000: system.cpu.l1i.prefetcher: PC:   0X41E0C0
17961000: system.cpu.l1i.prefetcher: Spatial Region address:       0X3C
17961000: system.cpu.l1i.prefetcher: Spatial Region physical address:    0X1E0C0
17961000: system.cpu.l1i.prefetcher: Spatial Region offset:        0X3
18038000: system.cpu.l1d.prefetcher: PC:   0X41E01D
18038000: system.cpu.l1d.prefetcher: Spatial Region address:      0X17F
18038000: system.cpu.l1d.prefetcher: Spatial Region physical address:    0XBF848
18038000: system.cpu.l1d.prefetcher: Spatial Region offset:        0X1
18039000: system.cpu.l1d.prefetcher: PC:   0X41E01D
18039000: system.cpu.l1d.prefetcher: Spatial Region address:      0X17F
18039000: system.cpu.l1d.prefetcher: Spatial Region physical address:    0XBF840
18039000: system.cpu.l1d.prefetcher: Spatial Region offset:        0X1
18169000: system.cpu.l1d.prefetcher: PC:   0X41E01D
18169000: system.cpu.l1d.prefetcher: Spatial Region address:      0X17F
18169000: system.cpu.l1d.prefetcher: Spatial Region physical address:    0XBF888
18169000: system.cpu.l1d.prefetcher: Spatial Region offset:        0X2
18170000: system.cpu.l1d.prefetcher: PC:   0X41E01D
18170000: system.cpu.l1d.prefetcher: Spatial Region address:      0X17F
18170000: system.cpu.l1d.prefetcher: Spatial Region physical address:    0XBF880
18170000: system.cpu.l1d.prefetcher: Spatial Region offset:        0X2
18273000: system.cpu.l1d.prefetcher: PC:   0X41E01D
18273000: system.cpu.l1d.prefetcher: Spatial Region address:      0X17F
18273000: system.cpu.l1d.prefetcher: Spatial Region physical address:    0XBF8C8
18273000: system.cpu.l1d.prefetcher: Spatial Region offset:        0X3
18274000: system.cpu.l1d.prefetcher: PC:   0X41E01D
18274000: system.cpu.l1d.prefetcher: Spatial Region address:      0X17F
18274000: system.cpu.l1d.prefetcher: Spatial Region physical address:    0XBF8C0
18274000: system.cpu.l1d.prefetcher: Spatial Region offset:        0X3
18377000: system.cpu.l1d.prefetcher: PC:   0X41E01D
18377000: system.cpu.l1d.prefetcher: Spatial Region address:      0X17F
18377000: system.cpu.l1d.prefetcher: Spatial Region physical address:    0XBF908
18377000: system.cpu.l1d.prefetcher: Spatial Region offset:        0X4
18378000: system.cpu.l1d.prefetcher: PC:   0X41E01D
18378000: system.cpu.l1d.prefetcher: Spatial Region address:      0X17F
18378000: system.cpu.l1d.prefetcher: Spatial Region physical address:    0XBF900
18378000: system.cpu.l1d.prefetcher: Spatial Region offset:        0X4
18481000: system.cpu.l1d.prefetcher: PC:   0X41E01D
18481000: system.cpu.l1d.prefetcher: Spatial Region address:      0X17F
18481000: system.cpu.l1d.prefetcher: Spatial Region physical address:    0XBF948
18481000: system.cpu.l1d.prefetcher: Spatial Region offset:        0X5
18482000: system.cpu.l1d.prefetcher: PC:   0X41E01D
18482000: system.cpu.l1d.prefetcher: Spatial Region address:      0X17F
18482000: system.cpu.l1d.prefetcher: Spatial Region physical address:    0XBF940
18482000: system.cpu.l1d.prefetcher: Spatial Region offset:        0X5
18585000: system.cpu.l1d.prefetcher: PC:   0X41E01D
18585000: system.cpu.l1d.prefetcher: Spatial Region address:      0X17F
18585000: system.cpu.l1d.prefetcher: Spatial Region physical address:    0XBF988
18585000: system.cpu.l1d.prefetcher: Spatial Region offset:        0X6
18586000: system.cpu.l1d.prefetcher: PC:   0X41E01D
18586000: system.cpu.l1d.prefetcher: Spatial Region address:      0X17F
[...]
60057000: system.cpu.l1i.prefetcher: PC:   0X401730
60057000: system.cpu.l1i.prefetcher: Spatial Region address:        0X2
60057000: system.cpu.l1i.prefetcher: Spatial Region physical address:     0X1700
60057000: system.cpu.l1i.prefetcher: Spatial Region offset:       0X1C
60141000: system.cpu.l1i.prefetcher: PC:   0X401D80
60141000: system.cpu.l1i.prefetcher: Spatial Region address:        0X3
60141000: system.cpu.l1i.prefetcher: Spatial Region physical address:     0X1D80
60141000: system.cpu.l1i.prefetcher: Spatial Region offset:       0X16
60233000: system.cpu.l1i.prefetcher: PC:   0X401DC0
60233000: system.cpu.l1i.prefetcher: Spatial Region address:        0X3
60233000: system.cpu.l1i.prefetcher: Spatial Region physical address:     0X1DC0
60233000: system.cpu.l1i.prefetcher: Spatial Region offset:       0X17
424769000: system.cpu.l1i.prefetcher: PC:   0X40FEC0
424769000: system.cpu.l1i.prefetcher: Spatial Region address:       0X1F
424769000: system.cpu.l1i.prefetcher: Spatial Region physical address:     0XFEC0
424769000: system.cpu.l1i.prefetcher: Spatial Region offset:       0X1B
424787000: system.cpu.l1d.prefetcher: PC:   0X40FE5A
424787000: system.cpu.l1d.prefetcher: Spatial Region address:      0X17D
424787000: system.cpu.l1d.prefetcher: Spatial Region physical address:    0XBEFD8
424787000: system.cpu.l1d.prefetcher: Spatial Region offset:       0X1F
424846000: system.cpu.l1i.prefetcher: PC:   0X40FF00
424846000: system.cpu.l1i.prefetcher: Spatial Region address:       0X1F
424846000: system.cpu.l1i.prefetcher: Spatial Region physical address:     0XFF00
424846000: system.cpu.l1i.prefetcher: Spatial Region offset:       0X1C
424928000: system.cpu.l1i.prefetcher: PC:   0X40FF40
424928000: system.cpu.l1i.prefetcher: Spatial Region address:       0X1F
424928000: system.cpu.l1i.prefetcher: Spatial Region physical address:     0XFF40
424928000: system.cpu.l1i.prefetcher: Spatial Region offset:       0X1D
425001000: system.cpu.l1i.prefetcher: PC:   0X40FF80
425001000: system.cpu.l1i.prefetcher: Spatial Region address:       0X1F
425001000: system.cpu.l1i.prefetcher: Spatial Region physical address:     0XFF80
425001000: system.cpu.l1i.prefetcher: Spatial Region offset:       0X1E
425085000: system.cpu.l1i.prefetcher: PC:   0X402E80
425085000: system.cpu.l1i.prefetcher: Spatial Region address:        0X5
425085000: system.cpu.l1i.prefetcher: Spatial Region physical address:     0X2E80
425085000: system.cpu.l1i.prefetcher: Spatial Region offset:       0X1A
425162000: system.cpu.l1i.prefetcher: PC:   0X4016E0
425162000: system.cpu.l1i.prefetcher: Spatial Region address:        0X2
425162000: system.cpu.l1i.prefetcher: Spatial Region physical address:     0X16C0
425162000: system.cpu.l1i.prefetcher: Spatial Region offset:       0X1B
425244000: system.cpu.l1d.prefetcher: PC:   0X4016E4
425244000: system.cpu.l1d.prefetcher: Spatial Region address:      0X183
425244000: system.cpu.l1d.prefetcher: Spatial Region physical address:    0XC1FF8
425244000: system.cpu.l1d.prefetcher: Spatial Region offset:       0X1F
425396000: system.cpu.l1i.prefetcher: PC:   0X401C20
425396000: system.cpu.l1i.prefetcher: Spatial Region address:        0X3
425396000: system.cpu.l1i.prefetcher: Spatial Region physical address:     0X1C00
425396000: system.cpu.l1i.prefetcher: Spatial Region offset:       0X10
425450000: system.cpu.l1i.prefetcher: PC:   0X4920A0
425450000: system.cpu.l1i.prefetcher: Spatial Region address:      0X124
425450000: system.cpu.l1i.prefetcher: Spatial Region physical address:    0X92080
425450000: system.cpu.l1i.prefetcher: Spatial Region offset:        0X2
425527000: system.cpu.l1i.prefetcher: PC:   0X4920C0
425527000: system.cpu.l1i.prefetcher: Spatial Region address:      0X124
425527000: system.cpu.l1i.prefetcher: Spatial Region physical address:    0X920C0
425527000: system.cpu.l1i.prefetcher: Spatial Region offset:        0X3
425591000: system.cpu.l1i.prefetcher: PC:   0X491F70
425591000: system.cpu.l1i.prefetcher: Spatial Region address:      0X123
425591000: system.cpu.l1i.prefetcher: Spatial Region physical address:    0X91F40
425591000: system.cpu.l1i.prefetcher: Spatial Region offset:       0X1D
425668000: system.cpu.l1i.prefetcher: PC:   0X491F80
425668000: system.cpu.l1i.prefetcher: Spatial Region address:      0X123
425668000: system.cpu.l1i.prefetcher: Spatial Region physical address:    0X91F80
425668000: system.cpu.l1i.prefetcher: Spatial Region offset:       0X1E
425732000: system.cpu.l1i.prefetcher: PC:   0X491FC0
425732000: system.cpu.l1i.prefetcher: Spatial Region address:      0X123
425732000: system.cpu.l1i.prefetcher: Spatial Region physical address:    0X91FC0
425732000: system.cpu.l1i.prefetcher: Spatial Region offset:       0X1F
425800000: system.cpu.l1i.prefetcher: PC:   0X492000
425800000: system.cpu.l1i.prefetcher: Spatial Region address:      0X124
425800000: system.cpu.l1i.prefetcher: Spatial Region physical address:    0X92000
425800000: system.cpu.l1i.prefetcher: Spatial Region offset:          0
425869000: system.cpu.l1i.prefetcher: PC:   0X492040
425869000: system.cpu.l1i.prefetcher: Spatial Region address:      0X124
425869000: system.cpu.l1i.prefetcher: Spatial Region physical address:    0X92040
425869000: system.cpu.l1i.prefetcher: Spatial Region offset:        0X1
425985000: system.cpu.l1i.prefetcher: PC:   0X402EC0
425985000: system.cpu.l1i.prefetcher: Spatial Region address:        0X5
425985000: system.cpu.l1i.prefetcher: Spatial Region physical address:     0X2EC0
425985000: system.cpu.l1i.prefetcher: Spatial Region offset:       0X1B
426049000: system.cpu.l1i.prefetcher: PC:   0X494540
426049000: system.cpu.l1i.prefetcher: Spatial Region address:      0X128
426049000: system.cpu.l1i.prefetcher: Spatial Region physical address:    0X94540
426049000: system.cpu.l1i.prefetcher: Spatial Region offset:       0X15
426126000: system.cpu.l1i.prefetcher: PC:   0X494580
426126000: system.cpu.l1i.prefetcher: Spatial Region address:      0X128
426126000: system.cpu.l1i.prefetcher: Spatial Region physical address:    0X94580
426126000: system.cpu.l1i.prefetcher: Spatial Region offset:       0X16
426197000: system.cpu.l1i.prefetcher: PC:   0X40FFC0
426197000: system.cpu.l1i.prefetcher: Spatial Region address:       0X1F
426197000: system.cpu.l1i.prefetcher: Spatial Region physical address:     0XFFC0
426197000: system.cpu.l1i.prefetcher: Spatial Region offset:       0X1F
426289000: system.cpu.l1i.prefetcher: PC:   0X410000
426289000: system.cpu.l1i.prefetcher: Spatial Region address:       0X20
426289000: system.cpu.l1i.prefetcher: Spatial Region physical address:    0X10000
426289000: system.cpu.l1i.prefetcher: Spatial Region offset:          0
426384000: system.cpu.l1i.prefetcher: PC:   0X410040
426384000: system.cpu.l1i.prefetcher: Spatial Region address:       0X20
426384000: system.cpu.l1i.prefetcher: Spatial Region physical address:    0X10040
426384000: system.cpu.l1i.prefetcher: Spatial Region offset:        0X1
426476000: system.cpu.l1i.prefetcher: PC:   0X410080
426476000: system.cpu.l1i.prefetcher: Spatial Region address:       0X20
426476000: system.cpu.l1i.prefetcher: Spatial Region physical address:    0X10080
426476000: system.cpu.l1i.prefetcher: Spatial Region offset:        0X2
426501000: system.cpu.l1d.prefetcher: PC:   0X410058
426501000: system.cpu.l1d.prefetcher: Spatial Region address:      0X182
426501000: system.cpu.l1d.prefetcher: Spatial Region physical address:    0XC1228
426501000: system.cpu.l1d.prefetcher: Spatial Region offset:        0X8
426540000: system.cpu.l1i.prefetcher: PC:   0X4100C0
426540000: system.cpu.l1i.prefetcher: Spatial Region address:       0X20
426540000: system.cpu.l1i.prefetcher: Spatial Region physical address:    0X100C0
426540000: system.cpu.l1i.prefetcher: Spatial Region offset:        0X3
426604000: system.cpu.l1i.prefetcher: PC:   0X418850
426604000: system.cpu.l1i.prefetcher: Spatial Region address:       0X31
426604000: system.cpu.l1i.prefetcher: Spatial Region physical address:    0X18840
426604000: system.cpu.l1i.prefetcher: Spatial Region offset:        0X1
426681000: system.cpu.l1i.prefetcher: PC:   0X418880
426681000: system.cpu.l1i.prefetcher: Spatial Region address:       0X31
426681000: system.cpu.l1i.prefetcher: Spatial Region physical address:    0X18880
426681000: system.cpu.l1i.prefetcher: Spatial Region offset:        0X2
426745000: system.cpu.l1i.prefetcher: PC:   0X418550
426745000: system.cpu.l1i.prefetcher: Spatial Region address:       0X30
426745000: system.cpu.l1i.prefetcher: Spatial Region physical address:    0X18540
426745000: system.cpu.l1i.prefetcher: Spatial Region offset:       0X15
426809000: system.cpu.l1i.prefetcher: PC:   0X418580
426809000: system.cpu.l1i.prefetcher: Spatial Region address:       0X30
426809000: system.cpu.l1i.prefetcher: Spatial Region physical address:    0X18580
426809000: system.cpu.l1i.prefetcher: Spatial Region offset:       0X16
426873000: system.cpu.l1i.prefetcher: PC:   0X4185C0
426873000: system.cpu.l1i.prefetcher: Spatial Region address:       0X30
426873000: system.cpu.l1i.prefetcher: Spatial Region physical address:    0X185C0
426873000: system.cpu.l1i.prefetcher: Spatial Region offset:       0X17
426937000: system.cpu.l1i.prefetcher: PC:   0X418780
426937000: system.cpu.l1i.prefetcher: Spatial Region address:       0X30
426937000: system.cpu.l1i.prefetcher: Spatial Region physical address:    0X18780
426937000: system.cpu.l1i.prefetcher: Spatial Region offset:       0X1E
427001000: system.cpu.l1i.prefetcher: PC:   0X4187C0
427001000: system.cpu.l1i.prefetcher: Spatial Region address:       0X30
427001000: system.cpu.l1i.prefetcher: Spatial Region physical address:    0X187C0
427001000: system.cpu.l1i.prefetcher: Spatial Region offset:       0X1F
427069000: system.cpu.l1i.prefetcher: PC:   0X418600
427069000: system.cpu.l1i.prefetcher: Spatial Region address:       0X30
427069000: system.cpu.l1i.prefetcher: Spatial Region physical address:    0X18600
427069000: system.cpu.l1i.prefetcher: Spatial Region offset:       0X18
427073000: system.cpu.l1d.prefetcher: PC:   0X41859E
427073000: system.cpu.l1d.prefetcher: Spatial Region address:      0X183
427073000: system.cpu.l1d.prefetcher: Spatial Region physical address:    0XC1C58
427073000: system.cpu.l1d.prefetcher: Spatial Region offset:       0X11
427133000: system.cpu.l1i.prefetcher: PC:   0X418640
427133000: system.cpu.l1i.prefetcher: Spatial Region address:       0X30
427133000: system.cpu.l1i.prefetcher: Spatial Region physical address:    0X18640
427133000: system.cpu.l1i.prefetcher: Spatial Region offset:       0X19
427167000: system.cpu.l1d.prefetcher: PC:   0X418600
427167000: system.cpu.l1d.prefetcher: Spatial Region address:      0X17E
427167000: system.cpu.l1d.prefetcher: Spatial Region physical address:    0XBF1E0
427167000: system.cpu.l1d.prefetcher: Spatial Region offset:        0X7
427197000: system.cpu.l1i.prefetcher: PC:   0X4186A4
427197000: system.cpu.l1i.prefetcher: Spatial Region address:       0X30
427197000: system.cpu.l1i.prefetcher: Spatial Region physical address:    0X18680
427197000: system.cpu.l1i.prefetcher: Spatial Region offset:       0X1A
427261000: system.cpu.l1i.prefetcher: PC:   0X4186C0
427261000: system.cpu.l1i.prefetcher: Spatial Region address:       0X30
427261000: system.cpu.l1i.prefetcher: Spatial Region physical address:    0X186C0
427261000: system.cpu.l1i.prefetcher: Spatial Region offset:       0X1B
427269000: system.cpu.l1d.prefetcher: PC:   0X4186AF
427269000: system.cpu.l1d.prefetcher: Spatial Region address:      0X17E
427269000: system.cpu.l1d.prefetcher: Spatial Region physical address:    0XBF140
427269000: system.cpu.l1d.prefetcher: Spatial Region offset:        0X5
427327000: system.cpu.l1i.prefetcher: PC:   0X418700
427327000: system.cpu.l1i.prefetcher: Spatial Region address:       0X30
427327000: system.cpu.l1i.prefetcher: Spatial Region physical address:    0X18700
427327000: system.cpu.l1i.prefetcher: Spatial Region offset:       0X1C
427332000: system.cpu.l1d.prefetcher: PC:   0X4186ED
427332000: system.cpu.l1d.prefetcher: Spatial Region address:      0X17E
427332000: system.cpu.l1d.prefetcher: Spatial Region physical address:    0XBF200
427332000: system.cpu.l1d.prefetcher: Spatial Region offset:        0X8
427391000: system.cpu.l1i.prefetcher: PC:   0X418740
427391000: system.cpu.l1i.prefetcher: Spatial Region address:       0X30
427391000: system.cpu.l1i.prefetcher: Spatial Region physical address:    0X18740
427391000: system.cpu.l1i.prefetcher: Spatial Region offset:       0X1D
427475000: system.cpu.l1d.prefetcher: PC:   0X41869B
427475000: system.cpu.l1d.prefetcher: Spatial Region address:      0X17E
427475000: system.cpu.l1d.prefetcher: Spatial Region physical address:    0XBF1A8
427475000: system.cpu.l1d.prefetcher: Spatial Region offset:        0X6
427541000: system.cpu.l1d.prefetcher: PC:   0X4186AF
427541000: system.cpu.l1d.prefetcher: Spatial Region address:      0X17E
427541000: system.cpu.l1d.prefetcher: Spatial Region physical address:    0XBF320
427541000: system.cpu.l1d.prefetcher: Spatial Region offset:        0XC
427604000: system.cpu.l1d.prefetcher: PC:   0X4186ED
427604000: system.cpu.l1d.prefetcher: Spatial Region address:      0X17E
427604000: system.cpu.l1d.prefetcher: Spatial Region physical address:    0XBF3E0
427604000: system.cpu.l1d.prefetcher: Spatial Region offset:        0XF
427667000: system.cpu.l1d.prefetcher: PC:   0X4186FB
427667000: system.cpu.l1d.prefetcher: Spatial Region address:      0X17E
427667000: system.cpu.l1d.prefetcher: Spatial Region physical address:    0XBF340
427667000: system.cpu.l1d.prefetcher: Spatial Region offset:        0XD
427668000: system.cpu.l1d.prefetcher: PC:   0X4186FF
427668000: system.cpu.l1d.prefetcher: Spatial Region address:      0X17E
427668000: system.cpu.l1d.prefetcher: Spatial Region physical address:    0XBF348
427668000: system.cpu.l1d.prefetcher: Spatial Region offset:        0XD
427759000: system.cpu.l1d.prefetcher: PC:   0X41869B
427759000: system.cpu.l1d.prefetcher: Spatial Region address:      0X17E
427759000: system.cpu.l1d.prefetcher: Spatial Region physical address:    0XBF388
427759000: system.cpu.l1d.prefetcher: Spatial Region offset:        0XE
427825000: system.cpu.l1d.prefetcher: PC:   0X4186AF
427825000: system.cpu.l1d.prefetcher: Spatial Region address:      0X17E
427825000: system.cpu.l1d.prefetcher: Spatial Region physical address:    0XBF500
427825000: system.cpu.l1d.prefetcher: Spatial Region offset:       0X14
427888000: system.cpu.l1d.prefetcher: PC:   0X4186ED
427888000: system.cpu.l1d.prefetcher: Spatial Region address:      0X17E
427888000: system.cpu.l1d.prefetcher: Spatial Region physical address:    0XBF5C0
427888000: system.cpu.l1d.prefetcher: Spatial Region offset:       0X17
427982000: system.cpu.l1d.prefetcher: PC:   0X41869B
427982000: system.cpu.l1d.prefetcher: Spatial Region address:      0X17E
427982000: system.cpu.l1d.prefetcher: Spatial Region physical address:    0XBF568
427982000: system.cpu.l1d.prefetcher: Spatial Region offset:       0X15
428097000: system.cpu.l1i.prefetcher: PC:   0X418800
428097000: system.cpu.l1i.prefetcher: Spatial Region address:       0X31
428097000: system.cpu.l1i.prefetcher: Spatial Region physical address:    0X18800
428097000: system.cpu.l1i.prefetcher: Spatial Region offset:          0
428165000: system.cpu.l1i.prefetcher: PC:   0X4188C0
428165000: system.cpu.l1i.prefetcher: Spatial Region address:       0X31
428165000: system.cpu.l1i.prefetcher: Spatial Region physical address:    0X188C0
428165000: system.cpu.l1i.prefetcher: Spatial Region offset:        0X3
428229000: system.cpu.l1i.prefetcher: PC:   0X418AC8
428229000: system.cpu.l1i.prefetcher: Spatial Region address:       0X31
428229000: system.cpu.l1i.prefetcher: Spatial Region physical address:    0X18AC0
428229000: system.cpu.l1i.prefetcher: Spatial Region offset:        0XB
428293000: system.cpu.l1i.prefetcher: PC:   0X418B00
428293000: system.cpu.l1i.prefetcher: Spatial Region address:       0X31
428293000: system.cpu.l1i.prefetcher: Spatial Region physical address:    0X18B00
428293000: system.cpu.l1i.prefetcher: Spatial Region offset:        0XC
428623000: system.cpu.l1i.prefetcher: PC:   0X418900
428623000: system.cpu.l1i.prefetcher: Spatial Region address:       0X31
428623000: system.cpu.l1i.prefetcher: Spatial Region physical address:    0X18900
428623000: system.cpu.l1i.prefetcher: Spatial Region offset:        0X4
428689000: system.cpu.l1i.prefetcher: PC:   0X418940
428689000: system.cpu.l1i.prefetcher: Spatial Region address:       0X31
428689000: system.cpu.l1i.prefetcher: Spatial Region physical address:    0X18940
428689000: system.cpu.l1i.prefetcher: Spatial Region offset:        0X5
428758000: system.cpu.l1i.prefetcher: PC:   0X418980
428758000: system.cpu.l1i.prefetcher: Spatial Region address:       0X31
428758000: system.cpu.l1i.prefetcher: Spatial Region physical address:    0X18980
428758000: system.cpu.l1i.prefetcher: Spatial Region offset:        0X6
428835000: system.cpu.l1i.prefetcher: PC:   0X4189C0
428835000: system.cpu.l1i.prefetcher: Spatial Region address:       0X31
428835000: system.cpu.l1i.prefetcher: Spatial Region physical address:    0X189C0
428835000: system.cpu.l1i.prefetcher: Spatial Region offset:        0X7
428840000: system.cpu.l1d.prefetcher: PC:   0X418928
428840000: system.cpu.l1d.prefetcher: Spatial Region address:      0X17E
428840000: system.cpu.l1d.prefetcher: Spatial Region physical address:    0XBF588
428840000: system.cpu.l1d.prefetcher: Spatial Region offset:       0X16
428927000: system.cpu.l1i.prefetcher: PC:   0X418A20
428927000: system.cpu.l1i.prefetcher: Spatial Region address:       0X31
428927000: system.cpu.l1i.prefetcher: Spatial Region physical address:    0X18A00
428927000: system.cpu.l1i.prefetcher: Spatial Region offset:        0X8
428991000: system.cpu.l1i.prefetcher: PC:   0X418A40
428991000: system.cpu.l1i.prefetcher: Spatial Region address:       0X31
428991000: system.cpu.l1i.prefetcher: Spatial Region physical address:    0X18A40
428991000: system.cpu.l1i.prefetcher: Spatial Region offset:        0X9
429055000: system.cpu.l1i.prefetcher: PC:   0X418A80
429055000: system.cpu.l1i.prefetcher: Spatial Region address:       0X31
429055000: system.cpu.l1i.prefetcher: Spatial Region physical address:    0X18A80
429055000: system.cpu.l1i.prefetcher: Spatial Region offset:        0XA
429148000: system.cpu.l1i.prefetcher: PC:   0X418B40
429148000: system.cpu.l1i.prefetcher: Spatial Region address:       0X31
429148000: system.cpu.l1i.prefetcher: Spatial Region physical address:    0X18B40
429148000: system.cpu.l1i.prefetcher: Spatial Region offset:        0XD
429228000: system.cpu.l1i.prefetcher: PC:   0X447DF0
429228000: system.cpu.l1i.prefetcher: Spatial Region address:       0X8F
429228000: system.cpu.l1i.prefetcher: Spatial Region physical address:    0X47DC0
429228000: system.cpu.l1i.prefetcher: Spatial Region offset:       0X17
429305000: system.cpu.l1i.prefetcher: PC:   0X447E00
429305000: system.cpu.l1i.prefetcher: Spatial Region address:       0X8F
429305000: system.cpu.l1i.prefetcher: Spatial Region physical address:    0X47E00
429305000: system.cpu.l1i.prefetcher: Spatial Region offset:       0X18
429369000: system.cpu.l1i.prefetcher: PC:   0X447E40
429369000: system.cpu.l1i.prefetcher: Spatial Region address:       0X8F
429369000: system.cpu.l1i.prefetcher: Spatial Region physical address:    0X47E40
429369000: system.cpu.l1i.prefetcher: Spatial Region offset:       0X19
429437000: system.cpu.l1i.prefetcher: PC:   0X447E80
429437000: system.cpu.l1i.prefetcher: Spatial Region address:       0X8F
429437000: system.cpu.l1i.prefetcher: Spatial Region physical address:    0X47E80
429437000: system.cpu.l1i.prefetcher: Spatial Region offset:       0X1A
Exit Eventexiting with last active thread context
Dump stats at the end of the ROI!
