gem5 Simulator System.  http://gem5.org
gem5 is copyrighted software; use the --copyright option for details.

gem5 version 20.1.0.2
gem5 compiled Dec 10 2021 07:18:28
gem5 started Dec 10 2021 07:23:07
gem5 executing on ARCH-750, pid 1094372
command line: /data/home/ycc32/450_project/gem5/build/X86/gem5.opt --debug-flags=HWPrefetch -re --outdir=/data/home/ycc32/450_project/gem5/results/X86/run_micro/ED1/Minor4/Slow/DDR3_2133_8x8/1GHz gem5-config/run_micro.py Minor4 Slow microbenchmark/ED1/bench.X86 DDR3_2133_8x8 --clock=1GHz

1GHz CPU speed and DRAM = DDR3_2133_8x8
system.py: init L2 cache with size 1MB
Global frequency set at 1000000000000 ticks per second
   1000: system.cpu.l1i.prefetcher: Hello World from HMM model
  79000: system.cpu.l1i.prefetcher: Hello World from HMM model
  82000: system.cpu.l1d.prefetcher: Hello World from HMM model
 143000: system.cpu.l1i.prefetcher: Hello World from HMM model
 161000: system.cpu.l1d.prefetcher: Hello World from HMM model
 162000: system.cpu.l1d.prefetcher: Hello World from HMM model
 207000: system.cpu.l1i.prefetcher: Hello World from HMM model
 298000: system.cpu.l1i.prefetcher: Hello World from HMM model
 318000: system.cpu.l1d.prefetcher: Hello World from HMM model
 321000: system.cpu.l1d.prefetcher: Hello World from HMM model
 364000: system.cpu.l1i.prefetcher: Hello World from HMM model
 408000: system.cpu.l1d.prefetcher: Hello World from HMM model
 460000: system.cpu.l1i.prefetcher: Hello World from HMM model
 555000: system.cpu.l1i.prefetcher: Hello World from HMM model
 562000: system.cpu.l1d.prefetcher: Hello World from HMM model
 565000: system.cpu.l1d.prefetcher: Hello World from HMM model
 619000: system.cpu.l1i.prefetcher: Hello World from HMM model
 683000: system.cpu.l1i.prefetcher: Hello World from HMM model
 760000: system.cpu.l1i.prefetcher: Hello World from HMM model
 767000: system.cpu.l1d.prefetcher: Hello World from HMM model
 773000: system.cpu.l1d.prefetcher: Hello World from HMM model
 824000: system.cpu.l1i.prefetcher: Hello World from HMM model
 862000: system.cpu.l1d.prefetcher: Hello World from HMM model
 888000: system.cpu.l1i.prefetcher: Hello World from HMM model
 927000: system.cpu.l1d.prefetcher: Hello World from HMM model
 952000: system.cpu.l1i.prefetcher: Hello World from HMM model
 991000: system.cpu.l1d.prefetcher: Hello World from HMM model
1054000: system.cpu.l1d.prefetcher: Hello World from HMM model
1119000: system.cpu.l1d.prefetcher: Hello World from HMM model
1120000: system.cpu.l1d.prefetcher: Hello World from HMM model
1188000: system.cpu.l1d.prefetcher: Hello World from HMM model
1256000: system.cpu.l1i.prefetcher: Hello World from HMM model
1287000: system.cpu.l1d.prefetcher: Hello World from HMM model
1288000: system.cpu.l1d.prefetcher: Hello World from HMM model
1320000: system.cpu.l1i.prefetcher: Hello World from HMM model
1350000: system.cpu.l1d.prefetcher: Hello World from HMM model
1429000: system.cpu.l1i.prefetcher: Hello World from HMM model
1493000: system.cpu.l1i.prefetcher: Hello World from HMM model
1557000: system.cpu.l1i.prefetcher: Hello World from HMM model
1630000: system.cpu.l1d.prefetcher: Hello World from HMM model
1696000: system.cpu.l1i.prefetcher: Hello World from HMM model
1760000: system.cpu.l1i.prefetcher: Hello World from HMM model
1769000: system.cpu.l1d.prefetcher: Hello World from HMM model
1824000: system.cpu.l1i.prefetcher: Hello World from HMM model
1903000: system.cpu.l1i.prefetcher: Hello World from HMM model
1967000: system.cpu.l1i.prefetcher: Hello World from HMM model
2046000: system.cpu.l1i.prefetcher: Hello World from HMM model
2140000: system.cpu.l1i.prefetcher: Hello World from HMM model
2239000: system.cpu.l1d.prefetcher: Hello World from HMM model
2330000: system.cpu.l1i.prefetcher: Hello World from HMM model
2482000: system.cpu.l1d.prefetcher: Hello World from HMM model
2673000: system.cpu.l1d.prefetcher: Hello World from HMM model
2877000: system.cpu.l1d.prefetcher: Hello World from HMM model
2964000: system.cpu.l1i.prefetcher: Hello World from HMM model
3155000: system.cpu.l1i.prefetcher: Hello World from HMM model
3257000: system.cpu.l1i.prefetcher: Hello World from HMM model
3321000: system.cpu.l1i.prefetcher: Hello World from HMM model
3396000: system.cpu.l1i.prefetcher: Hello World from HMM model
3460000: system.cpu.l1i.prefetcher: Hello World from HMM model
3537000: system.cpu.l1i.prefetcher: Hello World from HMM model
3601000: system.cpu.l1i.prefetcher: Hello World from HMM model
3665000: system.cpu.l1i.prefetcher: Hello World from HMM model
3729000: system.cpu.l1i.prefetcher: Hello World from HMM model
3801000: system.cpu.l1d.prefetcher: Hello World from HMM model
3816000: system.cpu.l1d.prefetcher: Hello World from HMM model
3828000: system.cpu.l1i.prefetcher: Hello World from HMM model
3891000: system.cpu.l1d.prefetcher: Hello World from HMM model
3938000: system.cpu.l1i.prefetcher: Hello World from HMM model
4002000: system.cpu.l1i.prefetcher: Hello World from HMM model
4066000: system.cpu.l1i.prefetcher: Hello World from HMM model
4139000: system.cpu.l1i.prefetcher: Hello World from HMM model
4203000: system.cpu.l1i.prefetcher: Hello World from HMM model
4294000: system.cpu.l1i.prefetcher: Hello World from HMM model
4360000: system.cpu.l1i.prefetcher: Hello World from HMM model
4428000: system.cpu.l1i.prefetcher: Hello World from HMM model
4496000: system.cpu.l1i.prefetcher: Hello World from HMM model
4560000: system.cpu.l1i.prefetcher: Hello World from HMM model
4624000: system.cpu.l1i.prefetcher: Hello World from HMM model
4727000: system.cpu.l1i.prefetcher: Hello World from HMM model
4791000: system.cpu.l1i.prefetcher: Hello World from HMM model
4855000: system.cpu.l1i.prefetcher: Hello World from HMM model
4863000: system.cpu.l1d.prefetcher: Hello World from HMM model
4925000: system.cpu.l1d.prefetcher: Hello World from HMM model
5057000: system.cpu.l1d.prefetcher: Hello World from HMM model
5148000: system.cpu.l1d.prefetcher: Hello World from HMM model
5235000: system.cpu.l1d.prefetcher: Hello World from HMM model
5253000: system.cpu.l1d.prefetcher: Hello World from HMM model
5402000: system.cpu.l1d.prefetcher: Hello World from HMM model
5534000: system.cpu.l1i.prefetcher: Hello World from HMM model
5608000: system.cpu.l1d.prefetcher: Hello World from HMM model
5682000: system.cpu.l1d.prefetcher: Hello World from HMM model
5757000: system.cpu.l1d.prefetcher: Hello World from HMM model
5809000: system.cpu.l1d.prefetcher: Hello World from HMM model
5902000: system.cpu.l1i.prefetcher: Hello World from HMM model
6004000: system.cpu.l1i.prefetcher: Hello World from HMM model
6095000: system.cpu.l1i.prefetcher: Hello World from HMM model
6159000: system.cpu.l1i.prefetcher: Hello World from HMM model
6232000: system.cpu.l1d.prefetcher: Hello World from HMM model
6245000: system.cpu.l1d.prefetcher: Hello World from HMM model
6337000: system.cpu.l1i.prefetcher: Hello World from HMM model
6428000: system.cpu.l1i.prefetcher: Hello World from HMM model
6492000: system.cpu.l1i.prefetcher: Hello World from HMM model
6584000: system.cpu.l1i.prefetcher: Hello World from HMM model
6661000: system.cpu.l1i.prefetcher: Hello World from HMM model
6725000: system.cpu.l1i.prefetcher: Hello World from HMM model
6817000: system.cpu.l1i.prefetcher: Hello World from HMM model
6907000: system.cpu.l1d.prefetcher: Hello World from HMM model
6908000: system.cpu.l1d.prefetcher: Hello World from HMM model
7013000: system.cpu.l1i.prefetcher: Hello World from HMM model
7104000: system.cpu.l1i.prefetcher: Hello World from HMM model
7168000: system.cpu.l1i.prefetcher: Hello World from HMM model
7236000: system.cpu.l1i.prefetcher: Hello World from HMM model
7304000: system.cpu.l1i.prefetcher: Hello World from HMM model
7396000: system.cpu.l1i.prefetcher: Hello World from HMM model
7460000: system.cpu.l1i.prefetcher: Hello World from HMM model
7526000: system.cpu.l1i.prefetcher: Hello World from HMM model
7620000: system.cpu.l1i.prefetcher: Hello World from HMM model
7711000: system.cpu.l1i.prefetcher: Hello World from HMM model
7785000: system.cpu.l1d.prefetcher: Hello World from HMM model
7786000: system.cpu.l1d.prefetcher: Hello World from HMM model
8139000: system.cpu.l1i.prefetcher: Hello World from HMM model
8216000: system.cpu.l1i.prefetcher: Hello World from HMM model
8280000: system.cpu.l1i.prefetcher: Hello World from HMM model
8372000: system.cpu.l1i.prefetcher: Hello World from HMM model
8449000: system.cpu.l1i.prefetcher: Hello World from HMM model
8513000: system.cpu.l1i.prefetcher: Hello World from HMM model
8615000: system.cpu.l1d.prefetcher: Hello World from HMM model
8680000: system.cpu.l1i.prefetcher: Hello World from HMM model
8766000: system.cpu.l1i.prefetcher: Hello World from HMM model
8860000: system.cpu.l1i.prefetcher: Hello World from HMM model
8924000: system.cpu.l1i.prefetcher: Hello World from HMM model
8992000: system.cpu.l1i.prefetcher: Hello World from HMM model
9084000: system.cpu.l1i.prefetcher: Hello World from HMM model
9148000: system.cpu.l1i.prefetcher: Hello World from HMM model
9212000: system.cpu.l1i.prefetcher: Hello World from HMM model
9285000: system.cpu.l1d.prefetcher: Hello World from HMM model
9286000: system.cpu.l1d.prefetcher: Hello World from HMM model
9387000: system.cpu.l1i.prefetcher: Hello World from HMM model
9482000: system.cpu.l1i.prefetcher: Hello World from HMM model
9574000: system.cpu.l1i.prefetcher: Hello World from HMM model
9652000: system.cpu.l1i.prefetcher: Hello World from HMM model
9744000: system.cpu.l1i.prefetcher: Hello World from HMM model
9821000: system.cpu.l1i.prefetcher: Hello World from HMM model
9885000: system.cpu.l1i.prefetcher: Hello World from HMM model
9959000: system.cpu.l1d.prefetcher: Hello World from HMM model
9960000: system.cpu.l1d.prefetcher: Hello World from HMM model
10064000: system.cpu.l1i.prefetcher: Hello World from HMM model
10128000: system.cpu.l1i.prefetcher: Hello World from HMM model
10274000: system.cpu.l1d.prefetcher: Hello World from HMM model
10339000: system.cpu.l1i.prefetcher: Hello World from HMM model
10403000: system.cpu.l1i.prefetcher: Hello World from HMM model
10467000: system.cpu.l1i.prefetcher: Hello World from HMM model
10559000: system.cpu.l1i.prefetcher: Hello World from HMM model
10623000: system.cpu.l1i.prefetcher: Hello World from HMM model
10687000: system.cpu.l1i.prefetcher: Hello World from HMM model
10784000: system.cpu.l1i.prefetcher: Hello World from HMM model
10852000: system.cpu.l1i.prefetcher: Hello World from HMM model
10927000: system.cpu.l1i.prefetcher: Hello World from HMM model
11000000: system.cpu.l1d.prefetcher: Hello World from HMM model
11001000: system.cpu.l1d.prefetcher: Hello World from HMM model
11100000: system.cpu.l1i.prefetcher: Hello World from HMM model
11298000: system.cpu.l1i.prefetcher: Hello World from HMM model
11391000: system.cpu.l1d.prefetcher: Hello World from HMM model
11392000: system.cpu.l1d.prefetcher: Hello World from HMM model
11518000: system.cpu.l1i.prefetcher: Hello World from HMM model
11609000: system.cpu.l1i.prefetcher: Hello World from HMM model
11673000: system.cpu.l1i.prefetcher: Hello World from HMM model
11737000: system.cpu.l1i.prefetcher: Hello World from HMM model
11762000: system.cpu.l1d.prefetcher: Hello World from HMM model
11801000: system.cpu.l1i.prefetcher: Hello World from HMM model
11868000: system.cpu.l1i.prefetcher: Hello World from HMM model
11869000: system.cpu.l1d.prefetcher: Hello World from HMM model
11932000: system.cpu.l1i.prefetcher: Hello World from HMM model
12008000: system.cpu.l1d.prefetcher: Hello World from HMM model
12009000: system.cpu.l1d.prefetcher: Hello World from HMM model
12079000: system.cpu.l1d.prefetcher: Hello World from HMM model
12080000: system.cpu.l1d.prefetcher: Hello World from HMM model
12150000: system.cpu.l1d.prefetcher: Hello World from HMM model
12151000: system.cpu.l1d.prefetcher: Hello World from HMM model
12221000: system.cpu.l1d.prefetcher: Hello World from HMM model
12222000: system.cpu.l1d.prefetcher: Hello World from HMM model
12292000: system.cpu.l1d.prefetcher: Hello World from HMM model
12293000: system.cpu.l1d.prefetcher: Hello World from HMM model
12363000: system.cpu.l1d.prefetcher: Hello World from HMM model
12430000: system.cpu.l1d.prefetcher: Hello World from HMM model
12520000: system.cpu.l1i.prefetcher: Hello World from HMM model
12594000: system.cpu.l1i.prefetcher: Hello World from HMM model
12658000: system.cpu.l1i.prefetcher: Hello World from HMM model
12735000: system.cpu.l1i.prefetcher: Hello World from HMM model
12746000: system.cpu.l1d.prefetcher: Hello World from HMM model
12799000: system.cpu.l1i.prefetcher: Hello World from HMM model
12867000: system.cpu.l1i.prefetcher: Hello World from HMM model
12931000: system.cpu.l1i.prefetcher: Hello World from HMM model
12995000: system.cpu.l1i.prefetcher: Hello World from HMM model
13064000: system.cpu.l1i.prefetcher: Hello World from HMM model
13140000: system.cpu.l1i.prefetcher: Hello World from HMM model
13257000: system.cpu.l1i.prefetcher: Hello World from HMM model
13332000: system.cpu.l1i.prefetcher: Hello World from HMM model
13405000: system.cpu.l1d.prefetcher: Hello World from HMM model
13459000: system.cpu.l1i.prefetcher: Hello World from HMM model
13486000: system.cpu.l1d.prefetcher: Hello World from HMM model
13494000: system.cpu.l1d.prefetcher: Hello World from HMM model
13550000: system.cpu.l1i.prefetcher: Hello World from HMM model
13551000: system.cpu.l1d.prefetcher: Hello World from HMM model
13641000: system.cpu.l1i.prefetcher: Hello World from HMM model
13705000: system.cpu.l1i.prefetcher: Hello World from HMM model
13796000: system.cpu.l1i.prefetcher: Hello World from HMM model
13805000: system.cpu.l1d.prefetcher: Hello World from HMM model
13806000: system.cpu.l1d.prefetcher: Hello World from HMM model
13860000: system.cpu.l1i.prefetcher: Hello World from HMM model
13930000: system.cpu.l1d.prefetcher: Hello World from HMM model
13931000: system.cpu.l1d.prefetcher: Hello World from HMM model
13931000: system.cpu.l1i.prefetcher: Hello World from HMM model
14076000: system.cpu.l1i.prefetcher: Hello World from HMM model
14077000: system.cpu.l1d.prefetcher: Hello World from HMM model
14080000: system.cpu.l1d.prefetcher: Hello World from HMM model
14175000: system.cpu.l1i.prefetcher: Hello World from HMM model
14253000: system.cpu.l1d.prefetcher: Hello World from HMM model
14262000: system.cpu.l1d.prefetcher: Hello World from HMM model
14267000: system.cpu.l1i.prefetcher: Hello World from HMM model
14346000: system.cpu.l1d.prefetcher: Hello World from HMM model
14392000: system.cpu.l1i.prefetcher: Hello World from HMM model
14400000: system.cpu.l1d.prefetcher: Hello World from HMM model
14456000: system.cpu.l1i.prefetcher: Hello World from HMM model
14520000: system.cpu.l1i.prefetcher: Hello World from HMM model
14584000: system.cpu.l1i.prefetcher: Hello World from HMM model
14648000: system.cpu.l1i.prefetcher: Hello World from HMM model
14739000: system.cpu.l1i.prefetcher: Hello World from HMM model
14755000: system.cpu.l1d.prefetcher: Hello World from HMM model
14803000: system.cpu.l1i.prefetcher: Hello World from HMM model
14867000: system.cpu.l1i.prefetcher: Hello World from HMM model
14935000: system.cpu.l1i.prefetcher: Hello World from HMM model
15003000: system.cpu.l1i.prefetcher: Hello World from HMM model
15009000: system.cpu.l1d.prefetcher: Hello World from HMM model
15067000: system.cpu.l1i.prefetcher: Hello World from HMM model
15137000: system.cpu.l1i.prefetcher: Hello World from HMM model
15310000: system.cpu.l1i.prefetcher: Hello World from HMM model
15378000: system.cpu.l1i.prefetcher: Hello World from HMM model
15473000: system.cpu.l1i.prefetcher: Hello World from HMM model
15476000: system.cpu.l1d.prefetcher: Hello World from HMM model
15537000: system.cpu.l1i.prefetcher: Hello World from HMM model
15619000: system.cpu.l1i.prefetcher: Hello World from HMM model
15932000: system.cpu.l1i.prefetcher: Hello World from HMM model
16011000: system.cpu.l1i.prefetcher: Hello World from HMM model
16016000: system.cpu.l1d.prefetcher: Hello World from HMM model
16075000: system.cpu.l1i.prefetcher: Hello World from HMM model
16170000: system.cpu.l1i.prefetcher: Hello World from HMM model
16184000: system.cpu.l1d.prefetcher: Hello World from HMM model
16247000: system.cpu.l1i.prefetcher: Hello World from HMM model
16324000: system.cpu.l1i.prefetcher: Hello World from HMM model
16393000: system.cpu.l1d.prefetcher: Hello World from HMM model
16393000: system.cpu.l1i.prefetcher: Hello World from HMM model
16471000: system.cpu.l1i.prefetcher: Hello World from HMM model
16559000: system.cpu.l1i.prefetcher: Hello World from HMM model
16645000: system.cpu.l1d.prefetcher: Hello World from HMM model
16882000: system.cpu.l1i.prefetcher: Hello World from HMM model
16946000: system.cpu.l1i.prefetcher: Hello World from HMM model
17023000: system.cpu.l1i.prefetcher: Hello World from HMM model
17029000: system.cpu.l1d.prefetcher: Hello World from HMM model
17087000: system.cpu.l1i.prefetcher: Hello World from HMM model
17122000: system.cpu.l1d.prefetcher: Hello World from HMM model
17123000: system.cpu.l1d.prefetcher: Hello World from HMM model
17178000: system.cpu.l1i.prefetcher: Hello World from HMM model
17242000: system.cpu.l1i.prefetcher: Hello World from HMM model
17306000: system.cpu.l1i.prefetcher: Hello World from HMM model
17370000: system.cpu.l1i.prefetcher: Hello World from HMM model
17375000: system.cpu.l1d.prefetcher: Hello World from HMM model
17434000: system.cpu.l1i.prefetcher: Hello World from HMM model
17525000: system.cpu.l1i.prefetcher: Hello World from HMM model
17589000: system.cpu.l1i.prefetcher: Hello World from HMM model
17653000: system.cpu.l1i.prefetcher: Hello World from HMM model
17730000: system.cpu.l1i.prefetcher: Hello World from HMM model
17794000: system.cpu.l1i.prefetcher: Hello World from HMM model
17801000: system.cpu.l1d.prefetcher: Hello World from HMM model
17810000: system.cpu.l1d.prefetcher: Hello World from HMM model
17862000: system.cpu.l1i.prefetcher: Hello World from HMM model
17876000: system.cpu.l1d.prefetcher: Hello World from HMM model
17961000: system.cpu.l1i.prefetcher: Hello World from HMM model
18038000: system.cpu.l1d.prefetcher: Hello World from HMM model
18039000: system.cpu.l1d.prefetcher: Hello World from HMM model
18169000: system.cpu.l1d.prefetcher: Hello World from HMM model
18170000: system.cpu.l1d.prefetcher: Hello World from HMM model
18273000: system.cpu.l1d.prefetcher: Hello World from HMM model
18274000: system.cpu.l1d.prefetcher: Hello World from HMM model
18377000: system.cpu.l1d.prefetcher: Hello World from HMM model
18378000: system.cpu.l1d.prefetcher: Hello World from HMM model
18481000: system.cpu.l1d.prefetcher: Hello World from HMM model
18482000: system.cpu.l1d.prefetcher: Hello World from HMM model
18585000: system.cpu.l1d.prefetcher: Hello World from HMM model
18586000: system.cpu.l1d.prefetcher: Hello World from HMM model
18689000: system.cpu.l1d.prefetcher: Hello World from HMM model
18690000: system.cpu.l1d.prefetcher: Hello World from HMM model
18793000: system.cpu.l1d.prefetcher: Hello World from HMM model
18794000: system.cpu.l1d.prefetcher: Hello World from HMM model
18897000: system.cpu.l1d.prefetcher: Hello World from HMM model
18898000: system.cpu.l1d.prefetcher: Hello World from HMM model
19001000: system.cpu.l1d.prefetcher: Hello World from HMM model
19002000: system.cpu.l1d.prefetcher: Hello World from HMM model
19105000: system.cpu.l1d.prefetcher: Hello World from HMM model
19106000: system.cpu.l1d.prefetcher: Hello World from HMM model
19209000: system.cpu.l1d.prefetcher: Hello World from HMM model
19210000: system.cpu.l1d.prefetcher: Hello World from HMM model
19313000: system.cpu.l1d.prefetcher: Hello World from HMM model
19314000: system.cpu.l1d.prefetcher: Hello World from HMM model
19417000: system.cpu.l1d.prefetcher: Hello World from HMM model
19418000: system.cpu.l1d.prefetcher: Hello World from HMM model
19521000: system.cpu.l1d.prefetcher: Hello World from HMM model
19522000: system.cpu.l1d.prefetcher: Hello World from HMM model
19625000: system.cpu.l1d.prefetcher: Hello World from HMM model
19626000: system.cpu.l1d.prefetcher: Hello World from HMM model
19729000: system.cpu.l1d.prefetcher: Hello World from HMM model
19730000: system.cpu.l1d.prefetcher: Hello World from HMM model
19846000: system.cpu.l1d.prefetcher: Hello World from HMM model
19847000: system.cpu.l1d.prefetcher: Hello World from HMM model
19950000: system.cpu.l1d.prefetcher: Hello World from HMM model
19951000: system.cpu.l1d.prefetcher: Hello World from HMM model
20054000: system.cpu.l1d.prefetcher: Hello World from HMM model
20055000: system.cpu.l1d.prefetcher: Hello World from HMM model
20158000: system.cpu.l1d.prefetcher: Hello World from HMM model
20159000: system.cpu.l1d.prefetcher: Hello World from HMM model
20262000: system.cpu.l1d.prefetcher: Hello World from HMM model
20263000: system.cpu.l1d.prefetcher: Hello World from HMM model
20366000: system.cpu.l1d.prefetcher: Hello World from HMM model
20367000: system.cpu.l1d.prefetcher: Hello World from HMM model
20470000: system.cpu.l1d.prefetcher: Hello World from HMM model
20471000: system.cpu.l1d.prefetcher: Hello World from HMM model
20574000: system.cpu.l1d.prefetcher: Hello World from HMM model
20575000: system.cpu.l1d.prefetcher: Hello World from HMM model
20678000: system.cpu.l1d.prefetcher: Hello World from HMM model
20679000: system.cpu.l1d.prefetcher: Hello World from HMM model
20782000: system.cpu.l1d.prefetcher: Hello World from HMM model
20783000: system.cpu.l1d.prefetcher: Hello World from HMM model
20886000: system.cpu.l1d.prefetcher: Hello World from HMM model
20887000: system.cpu.l1d.prefetcher: Hello World from HMM model
20990000: system.cpu.l1d.prefetcher: Hello World from HMM model
20991000: system.cpu.l1d.prefetcher: Hello World from HMM model
21094000: system.cpu.l1d.prefetcher: Hello World from HMM model
21095000: system.cpu.l1d.prefetcher: Hello World from HMM model
21198000: system.cpu.l1d.prefetcher: Hello World from HMM model
21199000: system.cpu.l1d.prefetcher: Hello World from HMM model
21294000: system.cpu.l1i.prefetcher: Hello World from HMM model
21395000: system.cpu.l1d.prefetcher: Hello World from HMM model
21493000: system.cpu.l1d.prefetcher: Hello World from HMM model
21598000: system.cpu.l1d.prefetcher: Hello World from HMM model
21732000: system.cpu.l1d.prefetcher: Hello World from HMM model
21833000: system.cpu.l1i.prefetcher: Hello World from HMM model
21934000: system.cpu.l1d.prefetcher: Hello World from HMM model
22096000: system.cpu.l1d.prefetcher: Hello World from HMM model
22230000: system.cpu.l1d.prefetcher: Hello World from HMM model
22331000: system.cpu.l1i.prefetcher: Hello World from HMM model
22432000: system.cpu.l1d.prefetcher: Hello World from HMM model
22595000: system.cpu.l1d.prefetcher: Hello World from HMM model
22658000: system.cpu.l1d.prefetcher: Hello World from HMM model
22792000: system.cpu.l1d.prefetcher: Hello World from HMM model
22912000: system.cpu.l1i.prefetcher: Hello World from HMM model
23087000: system.cpu.l1d.prefetcher: Hello World from HMM model
23249000: system.cpu.l1d.prefetcher: Hello World from HMM model
23312000: system.cpu.l1d.prefetcher: Hello World from HMM model
23441000: system.cpu.l1i.prefetcher: Hello World from HMM model
23704000: system.cpu.l1i.prefetcher: Hello World from HMM model
23775000: system.cpu.l1i.prefetcher: Hello World from HMM model
23841000: system.cpu.l1i.prefetcher: Hello World from HMM model
23935000: system.cpu.l1i.prefetcher: Hello World from HMM model
24012000: system.cpu.l1i.prefetcher: Hello World from HMM model
24076000: system.cpu.l1i.prefetcher: Hello World from HMM model
24140000: system.cpu.l1i.prefetcher: Hello World from HMM model
24155000: system.cpu.l1d.prefetcher: Hello World from HMM model
24158000: system.cpu.l1d.prefetcher: Hello World from HMM model
24204000: system.cpu.l1i.prefetcher: Hello World from HMM model
24268000: system.cpu.l1i.prefetcher: Hello World from HMM model
24332000: system.cpu.l1i.prefetcher: Hello World from HMM model
24396000: system.cpu.l1i.prefetcher: Hello World from HMM model
24460000: system.cpu.l1i.prefetcher: Hello World from HMM model
24526000: system.cpu.l1i.prefetcher: Hello World from HMM model
24590000: system.cpu.l1i.prefetcher: Hello World from HMM model
24654000: system.cpu.l1i.prefetcher: Hello World from HMM model
24660000: system.cpu.l1d.prefetcher: Hello World from HMM model
24663000: system.cpu.l1d.prefetcher: Hello World from HMM model
24718000: system.cpu.l1i.prefetcher: Hello World from HMM model
24743000: system.cpu.l1d.prefetcher: Hello World from HMM model
24782000: system.cpu.l1i.prefetcher: Hello World from HMM model
24850000: system.cpu.l1i.prefetcher: Hello World from HMM model
24914000: system.cpu.l1i.prefetcher: Hello World from HMM model
24978000: system.cpu.l1i.prefetcher: Hello World from HMM model
25057000: system.cpu.l1i.prefetcher: Hello World from HMM model
25066000: system.cpu.l1d.prefetcher: Hello World from HMM model
25121000: system.cpu.l1i.prefetcher: Hello World from HMM model
25185000: system.cpu.l1i.prefetcher: Hello World from HMM model
25249000: system.cpu.l1i.prefetcher: Hello World from HMM model
25313000: system.cpu.l1i.prefetcher: Hello World from HMM model
25381000: system.cpu.l1i.prefetcher: Hello World from HMM model
25445000: system.cpu.l1i.prefetcher: Hello World from HMM model
25509000: system.cpu.l1i.prefetcher: Hello World from HMM model
25573000: system.cpu.l1i.prefetcher: Hello World from HMM model
25637000: system.cpu.l1i.prefetcher: Hello World from HMM model
25650000: system.cpu.l1d.prefetcher: Hello World from HMM model
25653000: system.cpu.l1d.prefetcher: Hello World from HMM model
25701000: system.cpu.l1i.prefetcher: Hello World from HMM model
25716000: system.cpu.l1d.prefetcher: Hello World from HMM model
25765000: system.cpu.l1i.prefetcher: Hello World from HMM model
25809000: system.cpu.l1d.prefetcher: Hello World from HMM model
25833000: system.cpu.l1i.prefetcher: Hello World from HMM model
25897000: system.cpu.l1i.prefetcher: Hello World from HMM model
25961000: system.cpu.l1i.prefetcher: Hello World from HMM model
26025000: system.cpu.l1i.prefetcher: Hello World from HMM model
26102000: system.cpu.l1i.prefetcher: Hello World from HMM model
26223000: system.cpu.l1d.prefetcher: Hello World from HMM model
26300000: system.cpu.l1i.prefetcher: Hello World from HMM model
26307000: system.cpu.l1d.prefetcher: Hello World from HMM model
26364000: system.cpu.l1i.prefetcher: Hello World from HMM model
26373000: system.cpu.l1d.prefetcher: Hello World from HMM model
26428000: system.cpu.l1i.prefetcher: Hello World from HMM model
26492000: system.cpu.l1i.prefetcher: Hello World from HMM model
26556000: system.cpu.l1i.prefetcher: Hello World from HMM model
26633000: system.cpu.l1i.prefetcher: Hello World from HMM model
26697000: system.cpu.l1i.prefetcher: Hello World from HMM model
26763000: system.cpu.l1i.prefetcher: Hello World from HMM model
26827000: system.cpu.l1i.prefetcher: Hello World from HMM model
26891000: system.cpu.l1i.prefetcher: Hello World from HMM model
26968000: system.cpu.l1i.prefetcher: Hello World from HMM model
27182000: system.cpu.l1i.prefetcher: Hello World from HMM model
27246000: system.cpu.l1i.prefetcher: Hello World from HMM model
27310000: system.cpu.l1i.prefetcher: Hello World from HMM model
27380000: system.cpu.l1d.prefetcher: Hello World from HMM model
27391000: system.cpu.l1i.prefetcher: Hello World from HMM model
27468000: system.cpu.l1i.prefetcher: Hello World from HMM model
27486000: system.cpu.l1d.prefetcher: Hello World from HMM model
27532000: system.cpu.l1i.prefetcher: Hello World from HMM model
27600000: system.cpu.l1i.prefetcher: Hello World from HMM model
27698000: system.cpu.l1i.prefetcher: Hello World from HMM model
27762000: system.cpu.l1i.prefetcher: Hello World from HMM model
27831000: system.cpu.l1i.prefetcher: Hello World from HMM model
27935000: system.cpu.l1d.prefetcher: Hello World from HMM model
27947000: system.cpu.l1d.prefetcher: Hello World from HMM model
28029000: system.cpu.l1d.prefetcher: Hello World from HMM model
28041000: system.cpu.l1d.prefetcher: Hello World from HMM model
28123000: system.cpu.l1d.prefetcher: Hello World from HMM model
28135000: system.cpu.l1d.prefetcher: Hello World from HMM model
28217000: system.cpu.l1d.prefetcher: Hello World from HMM model
28229000: system.cpu.l1d.prefetcher: Hello World from HMM model
28311000: system.cpu.l1d.prefetcher: Hello World from HMM model
28323000: system.cpu.l1d.prefetcher: Hello World from HMM model
28405000: system.cpu.l1d.prefetcher: Hello World from HMM model
28417000: system.cpu.l1d.prefetcher: Hello World from HMM model
28499000: system.cpu.l1d.prefetcher: Hello World from HMM model
28511000: system.cpu.l1d.prefetcher: Hello World from HMM model
28593000: system.cpu.l1d.prefetcher: Hello World from HMM model
28605000: system.cpu.l1d.prefetcher: Hello World from HMM model
28687000: system.cpu.l1d.prefetcher: Hello World from HMM model
28699000: system.cpu.l1d.prefetcher: Hello World from HMM model
28877000: system.cpu.l1i.prefetcher: Hello World from HMM model
28948000: system.cpu.l1i.prefetcher: Hello World from HMM model
29023000: system.cpu.l1i.prefetcher: Hello World from HMM model
29087000: system.cpu.l1i.prefetcher: Hello World from HMM model
29092000: system.cpu.l1d.prefetcher: Hello World from HMM model
29151000: system.cpu.l1i.prefetcher: Hello World from HMM model
29278000: system.cpu.l1i.prefetcher: Hello World from HMM model
29364000: system.cpu.l1i.prefetcher: Hello World from HMM model
29442000: system.cpu.l1i.prefetcher: Hello World from HMM model
29506000: system.cpu.l1i.prefetcher: Hello World from HMM model
29570000: system.cpu.l1i.prefetcher: Hello World from HMM model
29664000: system.cpu.l1d.prefetcher: Hello World from HMM model
29748000: system.cpu.l1i.prefetcher: Hello World from HMM model
29825000: system.cpu.l1i.prefetcher: Hello World from HMM model
29916000: system.cpu.l1i.prefetcher: Hello World from HMM model
30006000: system.cpu.l1i.prefetcher: Hello World from HMM model
30083000: system.cpu.l1i.prefetcher: Hello World from HMM model
30147000: system.cpu.l1i.prefetcher: Hello World from HMM model
30211000: system.cpu.l1i.prefetcher: Hello World from HMM model
30282000: system.cpu.l1i.prefetcher: Hello World from HMM model
30382000: system.cpu.l1d.prefetcher: Hello World from HMM model
30388000: system.cpu.l1d.prefetcher: Hello World from HMM model
30475000: system.cpu.l1i.prefetcher: Hello World from HMM model
30552000: system.cpu.l1i.prefetcher: Hello World from HMM model
30629000: system.cpu.l1i.prefetcher: Hello World from HMM model
30693000: system.cpu.l1i.prefetcher: Hello World from HMM model
30698000: system.cpu.l1d.prefetcher: Hello World from HMM model
30757000: system.cpu.l1i.prefetcher: Hello World from HMM model
30825000: system.cpu.l1i.prefetcher: Hello World from HMM model
30829000: system.cpu.l1d.prefetcher: Hello World from HMM model
30891000: system.cpu.l1i.prefetcher: Hello World from HMM model
30982000: system.cpu.l1i.prefetcher: Hello World from HMM model
31073000: system.cpu.l1i.prefetcher: Hello World from HMM model
31149000: system.cpu.l1i.prefetcher: Hello World from HMM model
31542000: system.cpu.l1i.prefetcher: Hello World from HMM model
31619000: system.cpu.l1i.prefetcher: Hello World from HMM model
31696000: system.cpu.l1i.prefetcher: Hello World from HMM model
31760000: system.cpu.l1i.prefetcher: Hello World from HMM model
31829000: system.cpu.l1i.prefetcher: Hello World from HMM model
31912000: system.cpu.l1i.prefetcher: Hello World from HMM model
31926000: system.cpu.l1d.prefetcher: Hello World from HMM model
31927000: system.cpu.l1d.prefetcher: Hello World from HMM model
32002000: system.cpu.l1d.prefetcher: Hello World from HMM model
32086000: system.cpu.l1i.prefetcher: Hello World from HMM model
32154000: system.cpu.l1i.prefetcher: Hello World from HMM model
32218000: system.cpu.l1i.prefetcher: Hello World from HMM model
32309000: system.cpu.l1i.prefetcher: Hello World from HMM model
32373000: system.cpu.l1i.prefetcher: Hello World from HMM model
32460000: system.cpu.l1d.prefetcher: Hello World from HMM model
32496000: system.cpu.l1d.prefetcher: Hello World from HMM model
32536000: system.cpu.l1d.prefetcher: Hello World from HMM model
32538000: system.cpu.l1d.prefetcher: Hello World from HMM model
32613000: system.cpu.l1i.prefetcher: Hello World from HMM model
32713000: system.cpu.l1i.prefetcher: Hello World from HMM model
32814000: system.cpu.l1i.prefetcher: Hello World from HMM model
32910000: system.cpu.l1i.prefetcher: Hello World from HMM model
32995000: system.cpu.l1d.prefetcher: Hello World from HMM model
33036000: system.cpu.l1i.prefetcher: Hello World from HMM model
33100000: system.cpu.l1i.prefetcher: Hello World from HMM model
33164000: system.cpu.l1i.prefetcher: Hello World from HMM model
33230000: system.cpu.l1i.prefetcher: Hello World from HMM model
33333000: system.cpu.l1i.prefetcher: Hello World from HMM model
33412000: system.cpu.l1i.prefetcher: Hello World from HMM model
33476000: system.cpu.l1i.prefetcher: Hello World from HMM model
33540000: system.cpu.l1i.prefetcher: Hello World from HMM model
33640000: system.cpu.l1i.prefetcher: Hello World from HMM model
33731000: system.cpu.l1i.prefetcher: Hello World from HMM model
33795000: system.cpu.l1i.prefetcher: Hello World from HMM model
33859000: system.cpu.l1i.prefetcher: Hello World from HMM model
33925000: system.cpu.l1i.prefetcher: Hello World from HMM model
33934000: system.cpu.l1d.prefetcher: Hello World from HMM model
33938000: system.cpu.l1d.prefetcher: Hello World from HMM model
33989000: system.cpu.l1i.prefetcher: Hello World from HMM model
34024000: system.cpu.l1d.prefetcher: Hello World from HMM model
34025000: system.cpu.l1d.prefetcher: Hello World from HMM model
34080000: system.cpu.l1i.prefetcher: Hello World from HMM model
34178000: system.cpu.l1d.prefetcher: Hello World from HMM model
34179000: system.cpu.l1d.prefetcher: Hello World from HMM model
34283000: system.cpu.l1d.prefetcher: Hello World from HMM model
34284000: system.cpu.l1d.prefetcher: Hello World from HMM model
34354000: system.cpu.l1i.prefetcher: Hello World from HMM model
34451000: system.cpu.l1d.prefetcher: Hello World from HMM model
34452000: system.cpu.l1d.prefetcher: Hello World from HMM model
34556000: system.cpu.l1d.prefetcher: Hello World from HMM model
34557000: system.cpu.l1d.prefetcher: Hello World from HMM model
34635000: system.cpu.l1d.prefetcher: Hello World from HMM model
34636000: system.cpu.l1d.prefetcher: Hello World from HMM model
34713000: system.cpu.l1d.prefetcher: Hello World from HMM model
34714000: system.cpu.l1d.prefetcher: Hello World from HMM model
34792000: system.cpu.l1d.prefetcher: Hello World from HMM model
34793000: system.cpu.l1d.prefetcher: Hello World from HMM model
34870000: system.cpu.l1d.prefetcher: Hello World from HMM model
34871000: system.cpu.l1d.prefetcher: Hello World from HMM model
34949000: system.cpu.l1d.prefetcher: Hello World from HMM model
34950000: system.cpu.l1d.prefetcher: Hello World from HMM model
35027000: system.cpu.l1d.prefetcher: Hello World from HMM model
35028000: system.cpu.l1d.prefetcher: Hello World from HMM model
35106000: system.cpu.l1d.prefetcher: Hello World from HMM model
35107000: system.cpu.l1d.prefetcher: Hello World from HMM model
35184000: system.cpu.l1d.prefetcher: Hello World from HMM model
35185000: system.cpu.l1d.prefetcher: Hello World from HMM model
35263000: system.cpu.l1d.prefetcher: Hello World from HMM model
35264000: system.cpu.l1d.prefetcher: Hello World from HMM model
35341000: system.cpu.l1d.prefetcher: Hello World from HMM model
35342000: system.cpu.l1d.prefetcher: Hello World from HMM model
35420000: system.cpu.l1d.prefetcher: Hello World from HMM model
35421000: system.cpu.l1d.prefetcher: Hello World from HMM model
35498000: system.cpu.l1d.prefetcher: Hello World from HMM model
35499000: system.cpu.l1d.prefetcher: Hello World from HMM model
35598000: system.cpu.l1i.prefetcher: Hello World from HMM model
35719000: system.cpu.l1i.prefetcher: Hello World from HMM model
35787000: system.cpu.l1i.prefetcher: Hello World from HMM model
35890000: system.cpu.l1i.prefetcher: Hello World from HMM model
35996000: system.cpu.l1i.prefetcher: Hello World from HMM model
36060000: system.cpu.l1i.prefetcher: Hello World from HMM model
36124000: system.cpu.l1i.prefetcher: Hello World from HMM model
36192000: system.cpu.l1i.prefetcher: Hello World from HMM model
36260000: system.cpu.l1i.prefetcher: Hello World from HMM model
36326000: system.cpu.l1i.prefetcher: Hello World from HMM model
36392000: system.cpu.l1i.prefetcher: Hello World from HMM model
36499000: system.cpu.l1d.prefetcher: Hello World from HMM model
36500000: system.cpu.l1d.prefetcher: Hello World from HMM model
36595000: system.cpu.l1i.prefetcher: Hello World from HMM model
36666000: system.cpu.l1i.prefetcher: Hello World from HMM model
36734000: system.cpu.l1i.prefetcher: Hello World from HMM model
36807000: system.cpu.l1i.prefetcher: Hello World from HMM model
36871000: system.cpu.l1i.prefetcher: Hello World from HMM model
36935000: system.cpu.l1i.prefetcher: Hello World from HMM model
36999000: system.cpu.l1i.prefetcher: Hello World from HMM model
37063000: system.cpu.l1i.prefetcher: Hello World from HMM model
37127000: system.cpu.l1i.prefetcher: Hello World from HMM model
37191000: system.cpu.l1i.prefetcher: Hello World from HMM model
37267000: system.cpu.l1i.prefetcher: Hello World from HMM model
37343000: system.cpu.l1i.prefetcher: Hello World from HMM model
37409000: system.cpu.l1i.prefetcher: Hello World from HMM model
37473000: system.cpu.l1i.prefetcher: Hello World from HMM model
37548000: system.cpu.l1i.prefetcher: Hello World from HMM model
37612000: system.cpu.l1i.prefetcher: Hello World from HMM model
37697000: system.cpu.l1i.prefetcher: Hello World from HMM model
37769000: system.cpu.l1i.prefetcher: Hello World from HMM model
37841000: system.cpu.l1i.prefetcher: Hello World from HMM model
37928000: system.cpu.l1i.prefetcher: Hello World from HMM model
38035000: system.cpu.l1i.prefetcher: Hello World from HMM model
38122000: system.cpu.l1i.prefetcher: Hello World from HMM model
38209000: system.cpu.l1i.prefetcher: Hello World from HMM model
38294000: system.cpu.l1i.prefetcher: Hello World from HMM model
38366000: system.cpu.l1i.prefetcher: Hello World from HMM model
38442000: system.cpu.l1i.prefetcher: Hello World from HMM model
38506000: system.cpu.l1i.prefetcher: Hello World from HMM model
38570000: system.cpu.l1i.prefetcher: Hello World from HMM model
38634000: system.cpu.l1i.prefetcher: Hello World from HMM model
38702000: system.cpu.l1i.prefetcher: Hello World from HMM model
38797000: system.cpu.l1i.prefetcher: Hello World from HMM model
38867000: system.cpu.l1i.prefetcher: Hello World from HMM model
38935000: system.cpu.l1i.prefetcher: Hello World from HMM model
38945000: system.cpu.l1d.prefetcher: Hello World from HMM model
39315000: system.cpu.l1d.prefetcher: Hello World from HMM model
39411000: system.cpu.l1i.prefetcher: Hello World from HMM model
39488000: system.cpu.l1i.prefetcher: Hello World from HMM model
39552000: system.cpu.l1i.prefetcher: Hello World from HMM model
39616000: system.cpu.l1i.prefetcher: Hello World from HMM model
39625000: system.cpu.l1d.prefetcher: Hello World from HMM model
39680000: system.cpu.l1i.prefetcher: Hello World from HMM model
39752000: system.cpu.l1i.prefetcher: Hello World from HMM model
39830000: system.cpu.l1i.prefetcher: Hello World from HMM model
40205000: system.cpu.l1i.prefetcher: Hello World from HMM model
40286000: system.cpu.l1i.prefetcher: Hello World from HMM model
40350000: system.cpu.l1i.prefetcher: Hello World from HMM model
40427000: system.cpu.l1i.prefetcher: Hello World from HMM model
40451000: system.cpu.l1d.prefetcher: Hello World from HMM model
40491000: system.cpu.l1i.prefetcher: Hello World from HMM model
40500000: system.cpu.l1d.prefetcher: Hello World from HMM model
40555000: system.cpu.l1i.prefetcher: Hello World from HMM model
40619000: system.cpu.l1i.prefetcher: Hello World from HMM model
40683000: system.cpu.l1i.prefetcher: Hello World from HMM model
40751000: system.cpu.l1i.prefetcher: Hello World from HMM model
40839000: system.cpu.l1i.prefetcher: Hello World from HMM model
40903000: system.cpu.l1i.prefetcher: Hello World from HMM model
40967000: system.cpu.l1i.prefetcher: Hello World from HMM model
41071000: system.cpu.l1i.prefetcher: Hello World from HMM model
41135000: system.cpu.l1i.prefetcher: Hello World from HMM model
41203000: system.cpu.l1i.prefetcher: Hello World from HMM model
41271000: system.cpu.l1i.prefetcher: Hello World from HMM model
41342000: system.cpu.l1i.prefetcher: Hello World from HMM model
41425000: system.cpu.l1i.prefetcher: Hello World from HMM model
41973000: system.cpu.l1i.prefetcher: Hello World from HMM model
42092000: system.cpu.l1i.prefetcher: Hello World from HMM model
42223000: system.cpu.l1i.prefetcher: Hello World from HMM model
42312000: system.cpu.l1i.prefetcher: Hello World from HMM model
42380000: system.cpu.l1i.prefetcher: Hello World from HMM model
42461000: system.cpu.l1i.prefetcher: Hello World from HMM model
42893000: system.cpu.l1i.prefetcher: Hello World from HMM model
43123000: system.cpu.l1i.prefetcher: Hello World from HMM model
43204000: system.cpu.l1i.prefetcher: Hello World from HMM model
43268000: system.cpu.l1i.prefetcher: Hello World from HMM model
43525000: system.cpu.l1d.prefetcher: Hello World from HMM model
43966000: system.cpu.l1i.prefetcher: Hello World from HMM model
44047000: system.cpu.l1i.prefetcher: Hello World from HMM model
44790000: system.cpu.l1i.prefetcher: Hello World from HMM model
44854000: system.cpu.l1i.prefetcher: Hello World from HMM model
44930000: system.cpu.l1i.prefetcher: Hello World from HMM model
45185000: system.cpu.l1i.prefetcher: Hello World from HMM model
45249000: system.cpu.l1i.prefetcher: Hello World from HMM model
45313000: system.cpu.l1i.prefetcher: Hello World from HMM model
45377000: system.cpu.l1i.prefetcher: Hello World from HMM model
45398000: system.cpu.l1d.prefetcher: Hello World from HMM model
45441000: system.cpu.l1i.prefetcher: Hello World from HMM model
45505000: system.cpu.l1i.prefetcher: Hello World from HMM model
45596000: system.cpu.l1i.prefetcher: Hello World from HMM model
45660000: system.cpu.l1i.prefetcher: Hello World from HMM model
45734000: system.cpu.l1d.prefetcher: Hello World from HMM model
45848000: system.cpu.l1i.prefetcher: Hello World from HMM model
45917000: system.cpu.l1i.prefetcher: Hello World from HMM model
45993000: system.cpu.l1i.prefetcher: Hello World from HMM model
46057000: system.cpu.l1i.prefetcher: Hello World from HMM model
46121000: system.cpu.l1i.prefetcher: Hello World from HMM model
46185000: system.cpu.l1i.prefetcher: Hello World from HMM model
46253000: system.cpu.l1i.prefetcher: Hello World from HMM model
46317000: system.cpu.l1i.prefetcher: Hello World from HMM model
46381000: system.cpu.l1i.prefetcher: Hello World from HMM model
46445000: system.cpu.l1i.prefetcher: Hello World from HMM model
46624000: system.cpu.l1i.prefetcher: Hello World from HMM model
46692000: system.cpu.l1i.prefetcher: Hello World from HMM model
46756000: system.cpu.l1i.prefetcher: Hello World from HMM model
47060000: system.cpu.l1i.prefetcher: Hello World from HMM model
47124000: system.cpu.l1i.prefetcher: Hello World from HMM model
47188000: system.cpu.l1i.prefetcher: Hello World from HMM model
47252000: system.cpu.l1i.prefetcher: Hello World from HMM model
47316000: system.cpu.l1i.prefetcher: Hello World from HMM model
47380000: system.cpu.l1i.prefetcher: Hello World from HMM model
47444000: system.cpu.l1i.prefetcher: Hello World from HMM model
47513000: system.cpu.l1i.prefetcher: Hello World from HMM model
47577000: system.cpu.l1i.prefetcher: Hello World from HMM model
47641000: system.cpu.l1i.prefetcher: Hello World from HMM model
47705000: system.cpu.l1i.prefetcher: Hello World from HMM model
47711000: system.cpu.l1d.prefetcher: Hello World from HMM model
47782000: system.cpu.l1i.prefetcher: Hello World from HMM model
47877000: system.cpu.l1i.prefetcher: Hello World from HMM model
47973000: system.cpu.l1i.prefetcher: Hello World from HMM model
48147000: system.cpu.l1d.prefetcher: Hello World from HMM model
48149000: system.cpu.l1d.prefetcher: Hello World from HMM model
48223000: system.cpu.l1d.prefetcher: Hello World from HMM model
48356000: system.cpu.l1d.prefetcher: Hello World from HMM model
48438000: system.cpu.l1i.prefetcher: Hello World from HMM model
48502000: system.cpu.l1i.prefetcher: Hello World from HMM model
48629000: system.cpu.l1d.prefetcher: Hello World from HMM model
48716000: system.cpu.l1i.prefetcher: Hello World from HMM model
48785000: system.cpu.l1i.prefetcher: Hello World from HMM model
48926000: system.cpu.l1i.prefetcher: Hello World from HMM model
49085000: system.cpu.l1i.prefetcher: Hello World from HMM model
49389000: system.cpu.l1i.prefetcher: Hello World from HMM model
49495000: system.cpu.l1d.prefetcher: Hello World from HMM model
49511000: system.cpu.l1d.prefetcher: Hello World from HMM model
50131000: system.cpu.l1i.prefetcher: Hello World from HMM model
50373000: system.cpu.l1i.prefetcher: Hello World from HMM model
50633000: system.cpu.l1d.prefetcher: Hello World from HMM model
50721000: system.cpu.l1d.prefetcher: Hello World from HMM model
50722000: system.cpu.l1i.prefetcher: Hello World from HMM model
51148000: system.cpu.l1d.prefetcher: Hello World from HMM model
51235000: system.cpu.l1i.prefetcher: Hello World from HMM model
51261000: system.cpu.l1d.prefetcher: Hello World from HMM model
51354000: system.cpu.l1i.prefetcher: Hello World from HMM model
51369000: system.cpu.l1d.prefetcher: Hello World from HMM model
51418000: system.cpu.l1i.prefetcher: Hello World from HMM model
51445000: system.cpu.l1d.prefetcher: Hello World from HMM model
51510000: system.cpu.l1d.prefetcher: Hello World from HMM model
51511000: system.cpu.l1d.prefetcher: Hello World from HMM model
51575000: system.cpu.l1i.prefetcher: Hello World from HMM model
51727000: system.cpu.l1d.prefetcher: Hello World from HMM model
51732000: system.cpu.l1d.prefetcher: Hello World from HMM model
51858000: system.cpu.l1d.prefetcher: Hello World from HMM model
51884000: system.cpu.l1d.prefetcher: Hello World from HMM model
52030000: system.cpu.l1d.prefetcher: Hello World from HMM model
52054000: system.cpu.l1i.prefetcher: Hello World from HMM model
52135000: system.cpu.l1i.prefetcher: Hello World from HMM model
52514000: system.cpu.l1d.prefetcher: Hello World from HMM model
52716000: system.cpu.l1i.prefetcher: Hello World from HMM model
53118000: system.cpu.l1d.prefetcher: Hello World from HMM model
53118000: system.cpu.l1d.prefetcher: Hello World from HMM model
53208000: system.cpu.l1i.prefetcher: Hello World from HMM model
53376000: system.cpu.l1i.prefetcher: Hello World from HMM model
53449000: system.cpu.l1i.prefetcher: Hello World from HMM model
53747000: system.cpu.l1i.prefetcher: Hello World from HMM model
53815000: system.cpu.l1i.prefetcher: Hello World from HMM model
53821000: system.cpu.l1d.prefetcher: Hello World from HMM model
54151000: system.cpu.l1d.prefetcher: Hello World from HMM model
54272000: system.cpu.l1d.prefetcher: Hello World from HMM model
54273000: system.cpu.l1d.prefetcher: Hello World from HMM model
54382000: system.cpu.l1i.prefetcher: Hello World from HMM model
54459000: system.cpu.l1i.prefetcher: Hello World from HMM model
54523000: system.cpu.l1i.prefetcher: Hello World from HMM model
54851000: system.cpu.l1i.prefetcher: Hello World from HMM model
54915000: system.cpu.l1i.prefetcher: Hello World from HMM model
54992000: system.cpu.l1i.prefetcher: Hello World from HMM model
55060000: system.cpu.l1i.prefetcher: Hello World from HMM model
55132000: system.cpu.l1i.prefetcher: Hello World from HMM model
55248000: system.cpu.l1i.prefetcher: Hello World from HMM model
55325000: system.cpu.l1i.prefetcher: Hello World from HMM model
55400000: system.cpu.l1i.prefetcher: Hello World from HMM model
55477000: system.cpu.l1i.prefetcher: Hello World from HMM model
55501000: system.cpu.l1d.prefetcher: Hello World from HMM model
55501000: system.cpu.l1d.prefetcher: Hello World from HMM model
55541000: system.cpu.l1i.prefetcher: Hello World from HMM model
55607000: system.cpu.l1i.prefetcher: Hello World from HMM model
55671000: system.cpu.l1i.prefetcher: Hello World from HMM model
55735000: system.cpu.l1i.prefetcher: Hello World from HMM model
55803000: system.cpu.l1i.prefetcher: Hello World from HMM model
55809000: system.cpu.l1d.prefetcher: Hello World from HMM model
55813000: system.cpu.l1d.prefetcher: Hello World from HMM model
55867000: system.cpu.l1i.prefetcher: Hello World from HMM model
55948000: system.cpu.l1i.prefetcher: Hello World from HMM model
56025000: system.cpu.l1i.prefetcher: Hello World from HMM model
56089000: system.cpu.l1i.prefetcher: Hello World from HMM model
56094000: system.cpu.l1d.prefetcher: Hello World from HMM model
56153000: system.cpu.l1i.prefetcher: Hello World from HMM model
56158000: system.cpu.l1d.prefetcher: Hello World from HMM model
56217000: system.cpu.l1i.prefetcher: Hello World from HMM model
56322000: system.cpu.l1i.prefetcher: Hello World from HMM model
56413000: system.cpu.l1i.prefetcher: Hello World from HMM model
56490000: system.cpu.l1i.prefetcher: Hello World from HMM model
56507000: system.cpu.l1d.prefetcher: Hello World from HMM model
56554000: system.cpu.l1i.prefetcher: Hello World from HMM model
56618000: system.cpu.l1i.prefetcher: Hello World from HMM model
56682000: system.cpu.l1i.prefetcher: Hello World from HMM model
56687000: system.cpu.l1d.prefetcher: Hello World from HMM model
56746000: system.cpu.l1i.prefetcher: Hello World from HMM model
56757000: system.cpu.l1d.prefetcher: Hello World from HMM model
56810000: system.cpu.l1i.prefetcher: Hello World from HMM model
56882000: system.cpu.l1i.prefetcher: Hello World from HMM model
56950000: system.cpu.l1i.prefetcher: Hello World from HMM model
57045000: system.cpu.l1i.prefetcher: Hello World from HMM model
57063000: system.cpu.l1d.prefetcher: Hello World from HMM model
57064000: system.cpu.l1d.prefetcher: Hello World from HMM model
57109000: system.cpu.l1i.prefetcher: Hello World from HMM model
57198000: system.cpu.l1i.prefetcher: Hello World from HMM model
57289000: system.cpu.l1i.prefetcher: Hello World from HMM model
57357000: system.cpu.l1i.prefetcher: Hello World from HMM model
57421000: system.cpu.l1i.prefetcher: Hello World from HMM model
57544000: system.cpu.l1i.prefetcher: Hello World from HMM model
57608000: system.cpu.l1i.prefetcher: Hello World from HMM model
57672000: system.cpu.l1i.prefetcher: Hello World from HMM model
57736000: system.cpu.l1i.prefetcher: Hello World from HMM model
57827000: system.cpu.l1i.prefetcher: Hello World from HMM model
57832000: system.cpu.l1d.prefetcher: Hello World from HMM model
57891000: system.cpu.l1i.prefetcher: Hello World from HMM model
57982000: system.cpu.l1i.prefetcher: Hello World from HMM model
58046000: system.cpu.l1i.prefetcher: Hello World from HMM model
58059000: system.cpu.l1d.prefetcher: Hello World from HMM model
58060000: system.cpu.l1d.prefetcher: Hello World from HMM model
58112000: system.cpu.l1i.prefetcher: Hello World from HMM model
58149000: system.cpu.l1d.prefetcher: Hello World from HMM model
58295000: system.cpu.l1i.prefetcher: Hello World from HMM model
58363000: system.cpu.l1i.prefetcher: Hello World from HMM model
58454000: system.cpu.l1i.prefetcher: Hello World from HMM model
58518000: system.cpu.l1i.prefetcher: Hello World from HMM model
58582000: system.cpu.l1i.prefetcher: Hello World from HMM model
58646000: system.cpu.l1i.prefetcher: Hello World from HMM model
58710000: system.cpu.l1i.prefetcher: Hello World from HMM model
58787000: system.cpu.l1d.prefetcher: Hello World from HMM model
58965000: system.cpu.l1i.prefetcher: Hello World from HMM model
59074000: system.cpu.l1i.prefetcher: Hello World from HMM model
59176000: system.cpu.l1i.prefetcher: Hello World from HMM model
59240000: system.cpu.l1i.prefetcher: Hello World from HMM model
59304000: system.cpu.l1i.prefetcher: Hello World from HMM model
59372000: system.cpu.l1i.prefetcher: Hello World from HMM model
59440000: system.cpu.l1i.prefetcher: Hello World from HMM model
59540000: system.cpu.l1i.prefetcher: Hello World from HMM model
59631000: system.cpu.l1i.prefetcher: Hello World from HMM model
59699000: system.cpu.l1i.prefetcher: Hello World from HMM model
59716000: system.cpu.l1d.prefetcher: Hello World from HMM model
59763000: system.cpu.l1i.prefetcher: Hello World from HMM model
59769000: system.cpu.l1d.prefetcher: Hello World from HMM model
59832000: system.cpu.l1i.prefetcher: Hello World from HMM model
59903000: system.cpu.l1d.prefetcher: Hello World from HMM model
59980000: system.cpu.l1d.prefetcher: Hello World from HMM model
60057000: system.cpu.l1i.prefetcher: Hello World from HMM model
60141000: system.cpu.l1i.prefetcher: Hello World from HMM model
60233000: system.cpu.l1i.prefetcher: Hello World from HMM model
424769000: system.cpu.l1i.prefetcher: Hello World from HMM model
424787000: system.cpu.l1d.prefetcher: Hello World from HMM model
424846000: system.cpu.l1i.prefetcher: Hello World from HMM model
424928000: system.cpu.l1i.prefetcher: Hello World from HMM model
425001000: system.cpu.l1i.prefetcher: Hello World from HMM model
425085000: system.cpu.l1i.prefetcher: Hello World from HMM model
425162000: system.cpu.l1i.prefetcher: Hello World from HMM model
425244000: system.cpu.l1d.prefetcher: Hello World from HMM model
425396000: system.cpu.l1i.prefetcher: Hello World from HMM model
425450000: system.cpu.l1i.prefetcher: Hello World from HMM model
425527000: system.cpu.l1i.prefetcher: Hello World from HMM model
425591000: system.cpu.l1i.prefetcher: Hello World from HMM model
425668000: system.cpu.l1i.prefetcher: Hello World from HMM model
425732000: system.cpu.l1i.prefetcher: Hello World from HMM model
425800000: system.cpu.l1i.prefetcher: Hello World from HMM model
425869000: system.cpu.l1i.prefetcher: Hello World from HMM model
425985000: system.cpu.l1i.prefetcher: Hello World from HMM model
426049000: system.cpu.l1i.prefetcher: Hello World from HMM model
426126000: system.cpu.l1i.prefetcher: Hello World from HMM model
426197000: system.cpu.l1i.prefetcher: Hello World from HMM model
426289000: system.cpu.l1i.prefetcher: Hello World from HMM model
426384000: system.cpu.l1i.prefetcher: Hello World from HMM model
426476000: system.cpu.l1i.prefetcher: Hello World from HMM model
426501000: system.cpu.l1d.prefetcher: Hello World from HMM model
426540000: system.cpu.l1i.prefetcher: Hello World from HMM model
426604000: system.cpu.l1i.prefetcher: Hello World from HMM model
426681000: system.cpu.l1i.prefetcher: Hello World from HMM model
426745000: system.cpu.l1i.prefetcher: Hello World from HMM model
426809000: system.cpu.l1i.prefetcher: Hello World from HMM model
426873000: system.cpu.l1i.prefetcher: Hello World from HMM model
426937000: system.cpu.l1i.prefetcher: Hello World from HMM model
427001000: system.cpu.l1i.prefetcher: Hello World from HMM model
427069000: system.cpu.l1i.prefetcher: Hello World from HMM model
427073000: system.cpu.l1d.prefetcher: Hello World from HMM model
427133000: system.cpu.l1i.prefetcher: Hello World from HMM model
427167000: system.cpu.l1d.prefetcher: Hello World from HMM model
427197000: system.cpu.l1i.prefetcher: Hello World from HMM model
427261000: system.cpu.l1i.prefetcher: Hello World from HMM model
427269000: system.cpu.l1d.prefetcher: Hello World from HMM model
427327000: system.cpu.l1i.prefetcher: Hello World from HMM model
427332000: system.cpu.l1d.prefetcher: Hello World from HMM model
427391000: system.cpu.l1i.prefetcher: Hello World from HMM model
427475000: system.cpu.l1d.prefetcher: Hello World from HMM model
427541000: system.cpu.l1d.prefetcher: Hello World from HMM model
427604000: system.cpu.l1d.prefetcher: Hello World from HMM model
427667000: system.cpu.l1d.prefetcher: Hello World from HMM model
427668000: system.cpu.l1d.prefetcher: Hello World from HMM model
427759000: system.cpu.l1d.prefetcher: Hello World from HMM model
427825000: system.cpu.l1d.prefetcher: Hello World from HMM model
427888000: system.cpu.l1d.prefetcher: Hello World from HMM model
427982000: system.cpu.l1d.prefetcher: Hello World from HMM model
428097000: system.cpu.l1i.prefetcher: Hello World from HMM model
428165000: system.cpu.l1i.prefetcher: Hello World from HMM model
428229000: system.cpu.l1i.prefetcher: Hello World from HMM model
428293000: system.cpu.l1i.prefetcher: Hello World from HMM model
428623000: system.cpu.l1i.prefetcher: Hello World from HMM model
428689000: system.cpu.l1i.prefetcher: Hello World from HMM model
428758000: system.cpu.l1i.prefetcher: Hello World from HMM model
428835000: system.cpu.l1i.prefetcher: Hello World from HMM model
428840000: system.cpu.l1d.prefetcher: Hello World from HMM model
428927000: system.cpu.l1i.prefetcher: Hello World from HMM model
428991000: system.cpu.l1i.prefetcher: Hello World from HMM model
429055000: system.cpu.l1i.prefetcher: Hello World from HMM model
429148000: system.cpu.l1i.prefetcher: Hello World from HMM model
429228000: system.cpu.l1i.prefetcher: Hello World from HMM model
429305000: system.cpu.l1i.prefetcher: Hello World from HMM model
429369000: system.cpu.l1i.prefetcher: Hello World from HMM model
429437000: system.cpu.l1i.prefetcher: Hello World from HMM model
Exit Eventexiting with last active thread context
Dump stats at the end of the ROI!
