gem5 Simulator System.  http://gem5.org
gem5 is copyrighted software; use the --copyright option for details.

gem5 version 20.1.0.2
gem5 compiled Dec  8 2021 05:50:25
gem5 started Dec  8 2021 05:51:51
gem5 executing on ARCH-750, pid 996330
command line: /data/home/ycc32/450_project/gem5/build/X86/gem5.opt --debug-flags=HWPrefetch -re --outdir=/data/home/ycc32/450_project/gem5/results/X86/run_micro/CCa/Minor4/Slow/DDR3_2133_8x8/1GHz gem5-config/run_micro.py Minor4 Slow microbenchmark/CCa/bench.X86 DDR3_2133_8x8 --clock=1GHz

1GHz CPU speed and DRAM = DDR3_2133_8x8
system.py: init L2 cache with size 1MB
Global frequency set at 1000000000000 ticks per second
   1000: system.cpu.l1i.prefetcher: INSERTENTRY(): spatio_region:        0X3, pc:   0x401be0, physical addr:     0x1bc0
   1000: system.cpu.l1i.prefetcher: Created FT entry with:   0x401be0
   1000: system.cpu.l1i.prefetcher: CONGRATS: SUCCESS in inserting new FT entry found!!
  79000: system.cpu.l1i.prefetcher: INSERTENTRY(): spatio_region:        0X3, pc:   0x401c00, physical addr:     0x1c00
  79000: system.cpu.l1i.prefetcher: Created FT entry with:   0x401c00
  79000: system.cpu.l1i.prefetcher: CONGRATS: SUCCESS in inserting new FT entry found!!
  82000: system.cpu.l1d.prefetcher: INSERTENTRY(): spatio_region:      0X187, pc:   0x401be9, physical addr:    0xc3e40
  82000: system.cpu.l1d.prefetcher: Created FT entry with:   0x401be9
  82000: system.cpu.l1d.prefetcher: CONGRATS: SUCCESS in inserting new FT entry found!!
 143000: system.cpu.l1i.prefetcher: INSERTENTRY(): spatio_region:        0X3, pc:   0x401c40, physical addr:     0x1c40
 143000: system.cpu.l1i.prefetcher: Created FT entry with:   0x401c40
 143000: system.cpu.l1i.prefetcher: CONGRATS: SUCCESS in inserting new FT entry found!!
 161000: system.cpu.l1d.prefetcher: INSERTENTRY(): spatio_region:      0X187, pc:   0x401bf1, physical addr:    0xc3e38
 161000: system.cpu.l1d.prefetcher: Created FT entry with:   0x401bf1
 161000: system.cpu.l1d.prefetcher: CONGRATS: SUCCESS in inserting new FT entry found!!
 162000: system.cpu.l1d.prefetcher: INSERTENTRY(): spatio_region:      0X187, pc:   0x401bf2, physical addr:    0xc3e30
 162000: system.cpu.l1d.prefetcher: Created FT entry with:   0x401bf2
 162000: system.cpu.l1d.prefetcher: CONGRATS: SUCCESS in inserting new FT entry found!!
 207000: system.cpu.l1i.prefetcher: INSERTENTRY(): spatio_region:        0X4, pc:   0x4020d0, physical addr:     0x20c0
 207000: system.cpu.l1i.prefetcher: Created FT entry with:   0x4020d0
 207000: system.cpu.l1i.prefetcher: CONGRATS: SUCCESS in inserting new FT entry found!!
 298000: system.cpu.l1i.prefetcher: INSERTENTRY(): spatio_region:        0X4, pc:   0x402100, physical addr:     0x2100
 298000: system.cpu.l1i.prefetcher: Created FT entry with:   0x402100
 298000: system.cpu.l1i.prefetcher: CONGRATS: SUCCESS in inserting new FT entry found!!
 318000: system.cpu.l1d.prefetcher: INSERTENTRY(): spatio_region:      0X187, pc:   0x4020ee, physical addr:    0xc3d30
 318000: system.cpu.l1d.prefetcher: Created FT entry with:   0x4020ee
 318000: system.cpu.l1d.prefetcher: CONGRATS: SUCCESS in inserting new FT entry found!!
 321000: system.cpu.l1d.prefetcher: INSERTENTRY(): spatio_region:      0X187, pc:   0x4020fa, physical addr:    0xc3d38
 321000: system.cpu.l1d.prefetcher: Created FT entry with:   0x4020fa
 321000: system.cpu.l1d.prefetcher: CONGRATS: SUCCESS in inserting new FT entry found!!
 362000: system.cpu.l1i.prefetcher: INSERTENTRY(): spatio_region:        0X4, pc:   0x402140, physical addr:     0x2140
 362000: system.cpu.l1i.prefetcher: Created FT entry with:   0x402140
 362000: system.cpu.l1i.prefetcher: CONGRATS: SUCCESS in inserting new FT entry found!!
 459000: system.cpu.l1i.prefetcher: INSERTENTRY(): spatio_region:        0X4, pc:   0x402180, physical addr:     0x2180
 459000: system.cpu.l1i.prefetcher: Created FT entry with:   0x402180
 459000: system.cpu.l1i.prefetcher: CONGRATS: SUCCESS in inserting new FT entry found!!
 463000: system.cpu.l1d.prefetcher: INSERTENTRY(): spatio_region:      0X180, pc:   0x402111, physical addr:    0xc06c8
 463000: system.cpu.l1d.prefetcher: Created FT entry with:   0x402111
 463000: system.cpu.l1d.prefetcher: CONGRATS: SUCCESS in inserting new FT entry found!!
 528000: system.cpu.l1i.prefetcher: INSERTENTRY(): spatio_region:        0X3, pc:   0x401c80, physical addr:     0x1c80
 528000: system.cpu.l1i.prefetcher: Created FT entry with:   0x401c80
 528000: system.cpu.l1i.prefetcher: CONGRATS: SUCCESS in inserting new FT entry found!!
 626000: system.cpu.l1i.prefetcher: INSERTENTRY(): spatio_region:        0X4, pc:   0x4021c0, physical addr:     0x21c0
 626000: system.cpu.l1i.prefetcher: Created FT entry with:   0x4021c0
 626000: system.cpu.l1i.prefetcher: CONGRATS: SUCCESS in inserting new FT entry found!!
 630000: system.cpu.l1d.prefetcher: INSERTENTRY(): spatio_region:      0X183, pc:   0x402133, physical addr:    0xc1ce8
 630000: system.cpu.l1d.prefetcher: Created FT entry with:   0x402133
 630000: system.cpu.l1d.prefetcher: CONGRATS: SUCCESS in inserting new FT entry found!!
 633000: system.cpu.l1d.prefetcher: INSERTENTRY(): spatio_region:      0X17D, pc:   0x40213a, physical addr:    0xbea70
 633000: system.cpu.l1d.prefetcher: Created FT entry with:   0x40213a
 633000: system.cpu.l1d.prefetcher: CONGRATS: SUCCESS in inserting new FT entry found!!
 690000: system.cpu.l1i.prefetcher: INSERTENTRY(): spatio_region:        0X4, pc:   0x402200, physical addr:     0x2200
 690000: system.cpu.l1i.prefetcher: Created FT entry with:   0x402200
 690000: system.cpu.l1i.prefetcher: CONGRATS: SUCCESS in inserting new FT entry found!!
 754000: system.cpu.l1i.prefetcher: INSERTENTRY(): spatio_region:       0X98, pc:   0x44c3d0, physical addr:    0x4c3c0
 754000: system.cpu.l1i.prefetcher: Created FT entry with:   0x44c3d0
 754000: system.cpu.l1i.prefetcher: CONGRATS: SUCCESS in inserting new FT entry found!!
 831000: system.cpu.l1i.prefetcher: INSERTENTRY(): spatio_region:       0X98, pc:   0x44c400, physical addr:    0x4c400
 831000: system.cpu.l1i.prefetcher: Created FT entry with:   0x44c400
 831000: system.cpu.l1i.prefetcher: CONGRATS: SUCCESS in inserting new FT entry found!!
 838000: system.cpu.l1d.prefetcher: INSERTENTRY(): spatio_region:      0X184, pc:   0x44c3d7, physical addr:    0xc27e0
 838000: system.cpu.l1d.prefetcher: Created FT entry with:   0x44c3d7
 838000: system.cpu.l1d.prefetcher: CONGRATS: SUCCESS in inserting new FT entry found!!
 844000: system.cpu.l1d.prefetcher: INSERTENTRY(): spatio_region:      0X183, pc:   0x44c3e9, physical addr:    0xc1d00
 844000: system.cpu.l1d.prefetcher: Created FT entry with:   0x44c3e9
 844000: system.cpu.l1d.prefetcher: CONGRATS: SUCCESS in inserting new FT entry found!!
 895000: system.cpu.l1i.prefetcher: INSERTENTRY(): spatio_region:       0X98, pc:   0x44c440, physical addr:    0x4c440
 895000: system.cpu.l1i.prefetcher: Created FT entry with:   0x44c440
 895000: system.cpu.l1i.prefetcher: CONGRATS: SUCCESS in inserting new FT entry found!!
 933000: system.cpu.l1d.prefetcher: INSERTENTRY(): spatio_region:      0X185, pc:   0x44c3f8, physical addr:    0xc2890
 933000: system.cpu.l1d.prefetcher: Created FT entry with:   0x44c3f8
 933000: system.cpu.l1d.prefetcher: CONGRATS: SUCCESS in inserting new FT entry found!!
 959000: system.cpu.l1i.prefetcher: INSERTENTRY(): spatio_region:       0X98, pc:   0x44c480, physical addr:    0x4c480
 959000: system.cpu.l1i.prefetcher: Created FT entry with:   0x44c480
 959000: system.cpu.l1i.prefetcher: CONGRATS: SUCCESS in inserting new FT entry found!!
 998000: system.cpu.l1d.prefetcher: INSERTENTRY(): spatio_region:      0X180, pc:   0x44c406, physical addr:    0xc0118
 998000: system.cpu.l1d.prefetcher: Created FT entry with:   0x44c406
 998000: system.cpu.l1d.prefetcher: CONGRATS: SUCCESS in inserting new FT entry found!!
1023000: system.cpu.l1i.prefetcher: INSERTENTRY(): spatio_region:       0X98, pc:   0x44c4c0, physical addr:    0x4c4c0
1023000: system.cpu.l1i.prefetcher: Created FT entry with:   0x44c4c0
1023000: system.cpu.l1i.prefetcher: CONGRATS: SUCCESS in inserting new FT entry found!!
1062000: system.cpu.l1d.prefetcher: INSERTENTRY(): spatio_region:      0X185, pc:   0x44c414, physical addr:    0xc2848
1062000: system.cpu.l1d.prefetcher: Created FT entry with:   0x44c414
1062000: system.cpu.l1d.prefetcher: CONGRATS: SUCCESS in inserting new FT entry found!!
1125000: system.cpu.l1d.prefetcher: INSERTENTRY(): spatio_region:      0X185, pc:   0x44c41b, physical addr:    0xc2810
1125000: system.cpu.l1d.prefetcher: Created FT entry with:   0x44c41b
1125000: system.cpu.l1d.prefetcher: CONGRATS: SUCCESS in inserting new FT entry found!!
1190000: system.cpu.l1d.prefetcher: INSERTENTRY(): spatio_region:      0X187, pc:   0x44c422, physical addr:    0xc3cf8
1190000: system.cpu.l1d.prefetcher: Created FT entry with:   0x44c422
1190000: system.cpu.l1d.prefetcher: CONGRATS: SUCCESS in inserting new FT entry found!!
1191000: system.cpu.l1d.prefetcher: INSERTENTRY(): spatio_region:      0X187, pc:   0x44c427, physical addr:    0xc3cf0
1191000: system.cpu.l1d.prefetcher: Created FT entry with:   0x44c427
1191000: system.cpu.l1d.prefetcher: CONGRATS: SUCCESS in inserting new FT entry found!!
1259000: system.cpu.l1d.prefetcher: INSERTENTRY(): spatio_region:      0X17D, pc:   0x44c43b, physical addr:    0xbeaa0
1259000: system.cpu.l1d.prefetcher: Created FT entry with:   0x44c43b
1259000: system.cpu.l1d.prefetcher: CONGRATS: SUCCESS in inserting new FT entry found!!
1260000: system.cpu.l1i.prefetcher: INSERTENTRY(): spatio_region:       0X98, pc:   0x44c500, physical addr:    0x4c500
1260000: system.cpu.l1i.prefetcher: Created FT entry with:   0x44c500
1260000: system.cpu.l1i.prefetcher: CONGRATS: SUCCESS in inserting new FT entry found!!
1353000: system.cpu.l1i.prefetcher: INSERTENTRY(): spatio_region:       0X98, pc:   0x44c540, physical addr:    0x4c540
1353000: system.cpu.l1i.prefetcher: Created FT entry with:   0x44c540
1353000: system.cpu.l1i.prefetcher: CONGRATS: SUCCESS in inserting new FT entry found!!
1358000: system.cpu.l1d.prefetcher: INSERTENTRY(): spatio_region:      0X187, pc:   0x44c494, physical addr:    0xc3cb8
1358000: system.cpu.l1d.prefetcher: Created FT entry with:   0x44c494
1358000: system.cpu.l1d.prefetcher: CONGRATS: SUCCESS in inserting new FT entry found!!
1359000: system.cpu.l1d.prefetcher: INSERTENTRY(): spatio_region:      0X187, pc:   0x44c49b, physical addr:    0xc3cb0
1359000: system.cpu.l1d.prefetcher: Created FT entry with:   0x44c49b
1359000: system.cpu.l1d.prefetcher: CONGRATS: SUCCESS in inserting new FT entry found!!
1421000: system.cpu.l1d.prefetcher: INSERTENTRY(): spatio_region:      0X131, pc:   0x44c4b2, physical addr:    0x98fb8
1421000: system.cpu.l1d.prefetcher: Created FT entry with:   0x44c4b2
1421000: system.cpu.l1d.prefetcher: CONGRATS: SUCCESS in inserting new FT entry found!!
1500000: system.cpu.l1i.prefetcher: INSERTENTRY(): spatio_region:       0X98, pc:   0x44c5c0, physical addr:    0x4c5c0
1500000: system.cpu.l1i.prefetcher: Created FT entry with:   0x44c5c0
1500000: system.cpu.l1i.prefetcher: CONGRATS: SUCCESS in inserting new FT entry found!!
1564000: system.cpu.l1i.prefetcher: INSERTENTRY(): spatio_region:       0X98, pc:   0x44c600, physical addr:    0x4c600
1564000: system.cpu.l1i.prefetcher: Created FT entry with:   0x44c600
1564000: system.cpu.l1i.prefetcher: CONGRATS: SUCCESS in inserting new FT entry found!!
1637000: system.cpu.l1d.prefetcher: INSERTENTRY(): spatio_region:      0X131, pc:   0x44c4b2, physical addr:    0x98f74
1637000: system.cpu.l1d.prefetcher: Created FT entry with:   0x44c4b2
1637000: system.cpu.l1d.prefetcher: CONGRATS: SUCCESS in inserting new FT entry found!!
1703000: system.cpu.l1i.prefetcher: INSERTENTRY(): spatio_region:       0X98, pc:   0x44c690, physical addr:    0x4c680
1703000: system.cpu.l1i.prefetcher: Created FT entry with:   0x44c690
1703000: system.cpu.l1i.prefetcher: CONGRATS: SUCCESS in inserting new FT entry found!!
1767000: system.cpu.l1i.prefetcher: INSERTENTRY(): spatio_region:       0X98, pc:   0x44c6c0, physical addr:    0x4c6c0
1767000: system.cpu.l1i.prefetcher: Created FT entry with:   0x44c6c0
1767000: system.cpu.l1i.prefetcher: CONGRATS: SUCCESS in inserting new FT entry found!!
1776000: system.cpu.l1d.prefetcher: INSERTENTRY(): spatio_region:      0X187, pc:   0x44c6a2, physical addr:    0xc3e80
1776000: system.cpu.l1d.prefetcher: Created FT entry with:   0x44c6a2
1776000: system.cpu.l1d.prefetcher: CONGRATS: SUCCESS in inserting new FT entry found!!
1831000: system.cpu.l1i.prefetcher: INSERTENTRY(): spatio_region:       0X98, pc:   0x44c700, physical addr:    0x4c700
1831000: system.cpu.l1i.prefetcher: Created FT entry with:   0x44c700
1831000: system.cpu.l1i.prefetcher: CONGRATS: SUCCESS in inserting new FT entry found!!
1910000: system.cpu.l1i.prefetcher: INSERTENTRY(): spatio_region:       0X98, pc:   0x44c760, physical addr:    0x4c740
1910000: system.cpu.l1i.prefetcher: Created FT entry with:   0x44c760
1910000: system.cpu.l1i.prefetcher: CONGRATS: SUCCESS in inserting new FT entry found!!
1974000: system.cpu.l1i.prefetcher: INSERTENTRY(): spatio_region:       0X98, pc:   0x44c780, physical addr:    0x4c780
1974000: system.cpu.l1i.prefetcher: Created FT entry with:   0x44c780
1974000: system.cpu.l1i.prefetcher: CONGRATS: SUCCESS in inserting new FT entry found!!
2038000: system.cpu.l1i.prefetcher: INSERTENTRY(): spatio_region:       0X98, pc:   0x44c7c0, physical addr:    0x4c7c0
2038000: system.cpu.l1i.prefetcher: Created FT entry with:   0x44c7c0
2038000: system.cpu.l1i.prefetcher: CONGRATS: SUCCESS in inserting new FT entry found!!
2117000: system.cpu.l1i.prefetcher: INSERTENTRY(): spatio_region:       0X98, pc:   0x44c668, physical addr:    0x4c640
2117000: system.cpu.l1i.prefetcher: Created FT entry with:   0x44c668
2117000: system.cpu.l1i.prefetcher: CONGRATS: SUCCESS in inserting new FT entry found!!
2214000: system.cpu.l1i.prefetcher: INSERTENTRY(): spatio_region:       0X99, pc:   0x44c800, physical addr:    0x4c800
2214000: system.cpu.l1i.prefetcher: Created FT entry with:   0x44c800
2214000: system.cpu.l1i.prefetcher: CONGRATS: SUCCESS in inserting new FT entry found!!
2312000: system.cpu.l1d.prefetcher: INSERTENTRY(): spatio_region:      0X187, pc:   0x44c4d0, physical addr:    0xc3ec0
2312000: system.cpu.l1d.prefetcher: Created FT entry with:   0x44c4d0
2312000: system.cpu.l1d.prefetcher: CONGRATS: SUCCESS in inserting new FT entry found!!
2318000: system.cpu.l1i.prefetcher: INSERTENTRY(): spatio_region:       0X98, pc:   0x44c580, physical addr:    0x4c580
2318000: system.cpu.l1i.prefetcher: Created FT entry with:   0x44c580
2318000: system.cpu.l1i.prefetcher: CONGRATS: SUCCESS in inserting new FT entry found!!
2409000: system.cpu.l1i.prefetcher: INSERTENTRY(): spatio_region:       0X99, pc:   0x44c840, physical addr:    0x4c840
2409000: system.cpu.l1i.prefetcher: Created FT entry with:   0x44c840
2409000: system.cpu.l1i.prefetcher: CONGRATS: SUCCESS in inserting new FT entry found!!
2561000: system.cpu.l1d.prefetcher: INSERTENTRY(): spatio_region:      0X187, pc:   0x44c4d0, physical addr:    0xc3f00
2561000: system.cpu.l1d.prefetcher: Created FT entry with:   0x44c4d0
2561000: system.cpu.l1d.prefetcher: CONGRATS: SUCCESS in inserting new FT entry found!!
2749000: system.cpu.l1d.prefetcher: INSERTENTRY(): spatio_region:      0X187, pc:   0x44c6e3, physical addr:    0xc3f40
2749000: system.cpu.l1d.prefetcher: Created FT entry with:   0x44c6e3
2749000: system.cpu.l1d.prefetcher: CONGRATS: SUCCESS in inserting new FT entry found!!
2951000: system.cpu.l1d.prefetcher: INSERTENTRY(): spatio_region:      0X187, pc:   0x44c6cb, physical addr:    0xc3f80
2951000: system.cpu.l1d.prefetcher: Created FT entry with:   0x44c6cb
2951000: system.cpu.l1d.prefetcher: CONGRATS: SUCCESS in inserting new FT entry found!!
3043000: system.cpu.l1i.prefetcher: INSERTENTRY(): spatio_region:       0X99, pc:   0x44c880, physical addr:    0x4c880
3043000: system.cpu.l1i.prefetcher: Created FT entry with:   0x44c880
3043000: system.cpu.l1i.prefetcher: CONGRATS: SUCCESS in inserting new FT entry found!!
3254000: system.cpu.l1i.prefetcher: INSERTENTRY(): spatio_region:        0X4, pc:   0x402240, physical addr:     0x2240
3254000: system.cpu.l1i.prefetcher: Created FT entry with:   0x402240
3254000: system.cpu.l1i.prefetcher: CONGRATS: SUCCESS in inserting new FT entry found!!
3345000: system.cpu.l1i.prefetcher: INSERTENTRY(): spatio_region:       0X9A, pc:   0x44d530, physical addr:    0x4d500
3345000: system.cpu.l1i.prefetcher: Created FT entry with:   0x44d530
3345000: system.cpu.l1i.prefetcher: CONGRATS: SUCCESS in inserting new FT entry found!!
3409000: system.cpu.l1i.prefetcher: INSERTENTRY(): spatio_region:       0X9A, pc:   0x44d540, physical addr:    0x4d540
3409000: system.cpu.l1i.prefetcher: Created FT entry with:   0x44d540
3409000: system.cpu.l1i.prefetcher: CONGRATS: SUCCESS in inserting new FT entry found!!
3487000: system.cpu.l1i.prefetcher: INSERTENTRY(): spatio_region:       0X97, pc:   0x44bdd0, physical addr:    0x4bdc0
3487000: system.cpu.l1i.prefetcher: Created FT entry with:   0x44bdd0
3487000: system.cpu.l1i.prefetcher: CONGRATS: SUCCESS in inserting new FT entry found!!
3564000: system.cpu.l1i.prefetcher: INSERTENTRY(): spatio_region:       0X97, pc:   0x44be00, physical addr:    0x4be00
3564000: system.cpu.l1i.prefetcher: Created FT entry with:   0x44be00
3564000: system.cpu.l1i.prefetcher: CONGRATS: SUCCESS in inserting new FT entry found!!
3628000: system.cpu.l1i.prefetcher: INSERTENTRY(): spatio_region:       0X97, pc:   0x44be40, physical addr:    0x4be40
3628000: system.cpu.l1i.prefetcher: Created FT entry with:   0x44be40
3628000: system.cpu.l1i.prefetcher: CONGRATS: SUCCESS in inserting new FT entry found!!
3692000: system.cpu.l1i.prefetcher: INSERTENTRY(): spatio_region:       0X97, pc:   0x44bf1a, physical addr:    0x4bf00
3692000: system.cpu.l1i.prefetcher: Created FT entry with:   0x44bf1a
3692000: system.cpu.l1i.prefetcher: CONGRATS: SUCCESS in inserting new FT entry found!!
3756000: system.cpu.l1i.prefetcher: INSERTENTRY(): spatio_region:       0X97, pc:   0x44bf40, physical addr:    0x4bf40
3756000: system.cpu.l1i.prefetcher: Created FT entry with:   0x44bf40
3756000: system.cpu.l1i.prefetcher: CONGRATS: SUCCESS in inserting new FT entry found!!
3828000: system.cpu.l1d.prefetcher: INSERTENTRY(): spatio_region:      0X187, pc:   0x4021a5, physical addr:    0xc3d4c
3828000: system.cpu.l1d.prefetcher: Created FT entry with:   0x4021a5
3828000: system.cpu.l1d.prefetcher: CONGRATS: SUCCESS in inserting new FT entry found!!
3842000: system.cpu.l1d.prefetcher: INSERTENTRY(): spatio_region:      0X187, pc:   0x4021af, physical addr:    0xc3d50
3842000: system.cpu.l1d.prefetcher: Created FT entry with:   0x4021af
3842000: system.cpu.l1d.prefetcher: CONGRATS: SUCCESS in inserting new FT entry found!!
3850000: system.cpu.l1i.prefetcher: INSERTENTRY(): spatio_region:        0X4, pc:   0x402280, physical addr:     0x2280
3850000: system.cpu.l1i.prefetcher: Created FT entry with:   0x402280
3850000: system.cpu.l1i.prefetcher: CONGRATS: SUCCESS in inserting new FT entry found!!
3918000: system.cpu.l1d.prefetcher: INSERTENTRY(): spatio_region:      0X183, pc:   0x4021bf, physical addr:    0xc1d8c
3918000: system.cpu.l1d.prefetcher: Created FT entry with:   0x4021bf
3918000: system.cpu.l1d.prefetcher: CONGRATS: SUCCESS in inserting new FT entry found!!
3965000: system.cpu.l1i.prefetcher: INSERTENTRY(): spatio_region:        0X4, pc:   0x40233d, physical addr:     0x2300
3965000: system.cpu.l1i.prefetcher: Created FT entry with:   0x40233d
3965000: system.cpu.l1i.prefetcher: CONGRATS: SUCCESS in inserting new FT entry found!!
4029000: system.cpu.l1i.prefetcher: INSERTENTRY(): spatio_region:        0X4, pc:   0x402340, physical addr:     0x2340
4029000: system.cpu.l1i.prefetcher: Created FT entry with:   0x402340
4029000: system.cpu.l1i.prefetcher: CONGRATS: SUCCESS in inserting new FT entry found!!
4093000: system.cpu.l1i.prefetcher: INSERTENTRY(): spatio_region:        0X4, pc:   0x402380, physical addr:     0x2380
4093000: system.cpu.l1i.prefetcher: Created FT entry with:   0x402380
4093000: system.cpu.l1i.prefetcher: CONGRATS: SUCCESS in inserting new FT entry found!!
4157000: system.cpu.l1i.prefetcher: INSERTENTRY(): spatio_region:        0X5, pc:   0x402893, physical addr:     0x2880
4157000: system.cpu.l1i.prefetcher: Created FT entry with:   0x402893
4157000: system.cpu.l1i.prefetcher: CONGRATS: SUCCESS in inserting new FT entry found!!
4221000: system.cpu.l1i.prefetcher: INSERTENTRY(): spatio_region:        0X5, pc:   0x4028c0, physical addr:     0x28c0
4221000: system.cpu.l1i.prefetcher: Created FT entry with:   0x4028c0
4221000: system.cpu.l1i.prefetcher: CONGRATS: SUCCESS in inserting new FT entry found!!
4300000: system.cpu.l1i.prefetcher: INSERTENTRY(): spatio_region:        0X3, pc:   0x401d50, physical addr:     0x1d40
4300000: system.cpu.l1i.prefetcher: Created FT entry with:   0x401d50
4300000: system.cpu.l1i.prefetcher: CONGRATS: SUCCESS in inserting new FT entry found!!
4391000: system.cpu.l1i.prefetcher: INSERTENTRY(): spatio_region:        0X3, pc:   0x401d80, physical addr:     0x1d80
4391000: system.cpu.l1i.prefetcher: Created FT entry with:   0x401d80
4391000: system.cpu.l1i.prefetcher: CONGRATS: SUCCESS in inserting new FT entry found!!
4457000: system.cpu.l1i.prefetcher: INSERTENTRY(): spatio_region:        0X3, pc:   0x401dc0, physical addr:     0x1dc0
4457000: system.cpu.l1i.prefetcher: Created FT entry with:   0x401dc0
4457000: system.cpu.l1i.prefetcher: CONGRATS: SUCCESS in inserting new FT entry found!!
4521000: system.cpu.l1i.prefetcher: INSERTENTRY(): spatio_region:        0X3, pc:   0x401e00, physical addr:     0x1e00
4521000: system.cpu.l1i.prefetcher: Created FT entry with:   0x401e00
4521000: system.cpu.l1i.prefetcher: CONGRATS: SUCCESS in inserting new FT entry found!!
4589000: system.cpu.l1i.prefetcher: INSERTENTRY(): spatio_region:        0X3, pc:   0x401e40, physical addr:     0x1e40
4589000: system.cpu.l1i.prefetcher: Created FT entry with:   0x401e40
4589000: system.cpu.l1i.prefetcher: CONGRATS: SUCCESS in inserting new FT entry found!!
4657000: system.cpu.l1i.prefetcher: INSERTENTRY(): spatio_region:        0X3, pc:   0x401e80, physical addr:     0x1e80
4657000: system.cpu.l1i.prefetcher: Created FT entry with:   0x401e80
4657000: system.cpu.l1i.prefetcher: CONGRATS: SUCCESS in inserting new FT entry found!!
4721000: system.cpu.l1i.prefetcher: INSERTENTRY(): spatio_region:        0X3, pc:   0x401f14, physical addr:     0x1f00
4721000: system.cpu.l1i.prefetcher: Created FT entry with:   0x401f14
4721000: system.cpu.l1i.prefetcher: CONGRATS: SUCCESS in inserting new FT entry found!!
4785000: system.cpu.l1i.prefetcher: INSERTENTRY(): spatio_region:        0X3, pc:   0x401f40, physical addr:     0x1f40
4785000: system.cpu.l1i.prefetcher: Created FT entry with:   0x401f40
4785000: system.cpu.l1i.prefetcher: CONGRATS: SUCCESS in inserting new FT entry found!!
4862000: system.cpu.l1i.prefetcher: INSERTENTRY(): spatio_region:        0X4, pc:   0x4022c0, physical addr:     0x22c0
4862000: system.cpu.l1i.prefetcher: Created FT entry with:   0x4022c0
4862000: system.cpu.l1i.prefetcher: CONGRATS: SUCCESS in inserting new FT entry found!!
4967000: system.cpu.l1i.prefetcher: INSERTENTRY(): spatio_region:       0X98, pc:   0x44c360, physical addr:    0x4c340
4967000: system.cpu.l1i.prefetcher: Created FT entry with:   0x44c360
4967000: system.cpu.l1i.prefetcher: CONGRATS: SUCCESS in inserting new FT entry found!!
5031000: system.cpu.l1i.prefetcher: INSERTENTRY(): spatio_region:       0X98, pc:   0x44c380, physical addr:    0x4c380
5031000: system.cpu.l1i.prefetcher: Created FT entry with:   0x44c380
5031000: system.cpu.l1i.prefetcher: CONGRATS: SUCCESS in inserting new FT entry found!!
5039000: system.cpu.l1d.prefetcher: INSERTENTRY(): spatio_region:      0X17C, pc:   0x44c37c, physical addr:    0xbe7a8
5039000: system.cpu.l1d.prefetcher: Created FT entry with:   0x44c37c
5039000: system.cpu.l1d.prefetcher: CONGRATS: SUCCESS in inserting new FT entry found!!
5101000: system.cpu.l1d.prefetcher: INSERTENTRY(): spatio_region:      0X17C, pc:   0x44c380, physical addr:    0xbe7c0
5101000: system.cpu.l1d.prefetcher: Created FT entry with:   0x44c380
5101000: system.cpu.l1d.prefetcher: CONGRATS: SUCCESS in inserting new FT entry found!!
5233000: system.cpu.l1d.prefetcher: INSERTENTRY(): spatio_region:      0X17C, pc:   0x44c37c, physical addr:    0xbe620
5233000: system.cpu.l1d.prefetcher: Created FT entry with:   0x44c37c
5233000: system.cpu.l1d.prefetcher: CONGRATS: SUCCESS in inserting new FT entry found!!
5323000: system.cpu.l1d.prefetcher: INSERTENTRY(): spatio_region:      0X17C, pc:   0x44c39c, physical addr:    0xbe640
5323000: system.cpu.l1d.prefetcher: Created FT entry with:   0x44c39c
5323000: system.cpu.l1d.prefetcher: CONGRATS: SUCCESS in inserting new FT entry found!!
5411000: system.cpu.l1d.prefetcher: INSERTENTRY(): spatio_region:      0X183, pc:   0x402275, physical addr:    0xc1dc0
5411000: system.cpu.l1d.prefetcher: Created FT entry with:   0x402275
5411000: system.cpu.l1d.prefetcher: CONGRATS: SUCCESS in inserting new FT entry found!!
5428000: system.cpu.l1d.prefetcher: INSERTENTRY(): spatio_region:      0X17D, pc:   0x44c37c, physical addr:    0xbe888
5428000: system.cpu.l1d.prefetcher: Created FT entry with:   0x44c37c
5428000: system.cpu.l1d.prefetcher: CONGRATS: SUCCESS in inserting new FT entry found!!
5581000: system.cpu.l1d.prefetcher: INSERTENTRY(): spatio_region:      0X17C, pc:   0x44c37c, physical addr:    0xbe4d0
5581000: system.cpu.l1d.prefetcher: Created FT entry with:   0x44c37c
5581000: system.cpu.l1d.prefetcher: CONGRATS: SUCCESS in inserting new FT entry found!!
5727000: system.cpu.l1d.prefetcher: INSERTENTRY(): spatio_region:      0X17C, pc:   0x44c37c, physical addr:    0xbe770
5727000: system.cpu.l1d.prefetcher: Created FT entry with:   0x44c37c
5727000: system.cpu.l1d.prefetcher: CONGRATS: SUCCESS in inserting new FT entry found!!
5802000: system.cpu.l1d.prefetcher: INSERTENTRY(): spatio_region:      0X187, pc:   0x44c3c8, physical addr:    0xc3d80
5802000: system.cpu.l1d.prefetcher: Created FT entry with:   0x44c3c8
5802000: system.cpu.l1d.prefetcher: CONGRATS: SUCCESS in inserting new FT entry found!!
5874000: system.cpu.l1d.prefetcher: INSERTENTRY(): spatio_region:      0X187, pc:   0x44c3c8, physical addr:    0xc3d88
5874000: system.cpu.l1d.prefetcher: Created FT entry with:   0x44c3c8
5874000: system.cpu.l1d.prefetcher: CONGRATS: SUCCESS in inserting new FT entry found!!
5931000: system.cpu.l1d.prefetcher: INSERTENTRY(): spatio_region:          0, pc:   0x402311, physical addr:      0x2e8
5931000: system.cpu.l1d.prefetcher: Created FT entry with:   0x402311
5931000: system.cpu.l1d.prefetcher: CONGRATS: SUCCESS in inserting new FT entry found!!
5945000: system.cpu.l1i.prefetcher: INSERTENTRY(): spatio_region:        0X4, pc:   0x4023c0, physical addr:     0x23c0
5945000: system.cpu.l1i.prefetcher: Created FT entry with:   0x4023c0
5945000: system.cpu.l1i.prefetcher: CONGRATS: SUCCESS in inserting new FT entry found!!
6048000: system.cpu.l1i.prefetcher: INSERTENTRY(): spatio_region:       0X43, pc:   0x421940, physical addr:    0x21940
6048000: system.cpu.l1i.prefetcher: Created FT entry with:   0x421940
6048000: system.cpu.l1i.prefetcher: CONGRATS: SUCCESS in inserting new FT entry found!!
6139000: system.cpu.l1i.prefetcher: INSERTENTRY(): spatio_region:       0X43, pc:   0x421980, physical addr:    0x21980
6139000: system.cpu.l1i.prefetcher: Created FT entry with:   0x421980
6139000: system.cpu.l1i.prefetcher: CONGRATS: SUCCESS in inserting new FT entry found!!
6203000: system.cpu.l1i.prefetcher: INSERTENTRY(): spatio_region:       0X43, pc:   0x4219c0, physical addr:    0x219c0
6203000: system.cpu.l1i.prefetcher: Created FT entry with:   0x4219c0
6203000: system.cpu.l1i.prefetcher: CONGRATS: SUCCESS in inserting new FT entry found!!
6276000: system.cpu.l1d.prefetcher: INSERTENTRY(): spatio_region:      0X17E, pc:   0x402318, physical addr:    0xbf0d0
6276000: system.cpu.l1d.prefetcher: Created FT entry with:   0x402318
6276000: system.cpu.l1d.prefetcher: CONGRATS: SUCCESS in inserting new FT entry found!!
6289000: system.cpu.l1d.prefetcher: Updated AGT entry with:          0
6381000: system.cpu.l1i.prefetcher: INSERTENTRY(): spatio_region:       0X43, pc:   0x421ab0, physical addr:    0x21a80
6381000: system.cpu.l1i.prefetcher: Created FT entry with:   0x421ab0
6381000: system.cpu.l1i.prefetcher: CONGRATS: SUCCESS in inserting new FT entry found!!
6472000: system.cpu.l1i.prefetcher: INSERTENTRY(): spatio_region:       0X43, pc:   0x421ac0, physical addr:    0x21ac0
6472000: system.cpu.l1i.prefetcher: Created FT entry with:   0x421ac0
6472000: system.cpu.l1i.prefetcher: CONGRATS: SUCCESS in inserting new FT entry found!!
6536000: system.cpu.l1i.prefetcher: INSERTENTRY(): spatio_region:       0X43, pc:   0x421b00, physical addr:    0x21b00
6536000: system.cpu.l1i.prefetcher: Created FT entry with:   0x421b00
6536000: system.cpu.l1i.prefetcher: CONGRATS: SUCCESS in inserting new FT entry found!!
6628000: system.cpu.l1i.prefetcher: INSERTENTRY(): spatio_region:      0X109, pc:   0x484a40, physical addr:    0x84a40
6628000: system.cpu.l1i.prefetcher: Created FT entry with:   0x484a40
6628000: system.cpu.l1i.prefetcher: CONGRATS: SUCCESS in inserting new FT entry found!!
6705000: system.cpu.l1i.prefetcher: INSERTENTRY(): spatio_region:      0X109, pc:   0x484a80, physical addr:    0x84a80
6705000: system.cpu.l1i.prefetcher: Created FT entry with:   0x484a80
6705000: system.cpu.l1i.prefetcher: CONGRATS: SUCCESS in inserting new FT entry found!!
6797000: system.cpu.l1i.prefetcher: INSERTENTRY(): spatio_region:       0X43, pc:   0x421a50, physical addr:    0x21a40
6797000: system.cpu.l1i.prefetcher: Created FT entry with:   0x421a50
6797000: system.cpu.l1i.prefetcher: CONGRATS: SUCCESS in inserting new FT entry found!!
6887000: system.cpu.l1d.prefetcher: INSERTENTRY(): spatio_region:      0X17E, pc:   0x402318, physical addr:    0xbf0b8
6887000: system.cpu.l1d.prefetcher: Created FT entry with:   0x402318
6887000: system.cpu.l1d.prefetcher: CONGRATS: SUCCESS in inserting new FT entry found!!
6888000: system.cpu.l1d.prefetcher: Updated AGT entry with:          0
6993000: system.cpu.l1i.prefetcher: INSERTENTRY(): spatio_region:       0X44, pc:   0x422520, physical addr:    0x22500
6993000: system.cpu.l1i.prefetcher: Created FT entry with:   0x422520
6993000: system.cpu.l1i.prefetcher: CONGRATS: SUCCESS in inserting new FT entry found!!
7084000: system.cpu.l1i.prefetcher: INSERTENTRY(): spatio_region:       0X44, pc:   0x422540, physical addr:    0x22540
7084000: system.cpu.l1i.prefetcher: Created FT entry with:   0x422540
7084000: system.cpu.l1i.prefetcher: CONGRATS: SUCCESS in inserting new FT entry found!!
7148000: system.cpu.l1i.prefetcher: INSERTENTRY(): spatio_region:       0X44, pc:   0x422580, physical addr:    0x22580
7148000: system.cpu.l1i.prefetcher: Created FT entry with:   0x422580
7148000: system.cpu.l1i.prefetcher: CONGRATS: SUCCESS in inserting new FT entry found!!
7216000: system.cpu.l1i.prefetcher: INSERTENTRY(): spatio_region:       0X44, pc:   0x4225c0, physical addr:    0x225c0
7216000: system.cpu.l1i.prefetcher: Created FT entry with:   0x4225c0
7216000: system.cpu.l1i.prefetcher: CONGRATS: SUCCESS in inserting new FT entry found!!
7282000: system.cpu.l1i.prefetcher: INSERTENTRY(): spatio_region:       0X44, pc:   0x422600, physical addr:    0x22600
7282000: system.cpu.l1i.prefetcher: Created FT entry with:   0x422600
7282000: system.cpu.l1i.prefetcher: CONGRATS: SUCCESS in inserting new FT entry found!!
7374000: system.cpu.l1i.prefetcher: INSERTENTRY(): spatio_region:      0X109, pc:   0x484ce0, physical addr:    0x84cc0
7374000: system.cpu.l1i.prefetcher: Created FT entry with:   0x484ce0
7374000: system.cpu.l1i.prefetcher: CONGRATS: SUCCESS in inserting new FT entry found!!
7438000: system.cpu.l1i.prefetcher: INSERTENTRY(): spatio_region:      0X109, pc:   0x484d00, physical addr:    0x84d00
7438000: system.cpu.l1i.prefetcher: Created FT entry with:   0x484d00
7438000: system.cpu.l1i.prefetcher: CONGRATS: SUCCESS in inserting new FT entry found!!
7502000: system.cpu.l1i.prefetcher: INSERTENTRY(): spatio_region:      0X109, pc:   0x484d40, physical addr:    0x84d40
7502000: system.cpu.l1i.prefetcher: Created FT entry with:   0x484d40
7502000: system.cpu.l1i.prefetcher: CONGRATS: SUCCESS in inserting new FT entry found!!
7570000: system.cpu.l1i.prefetcher: INSERTENTRY(): spatio_region:      0X109, pc:   0x484d80, physical addr:    0x84d80
7570000: system.cpu.l1i.prefetcher: Created FT entry with:   0x484d80
7570000: system.cpu.l1i.prefetcher: CONGRATS: SUCCESS in inserting new FT entry found!!
7666000: system.cpu.l1i.prefetcher: INSERTENTRY(): spatio_region:       0X43, pc:   0x421a00, physical addr:    0x21a00
7666000: system.cpu.l1i.prefetcher: Created FT entry with:   0x421a00
7666000: system.cpu.l1i.prefetcher: CONGRATS: SUCCESS in inserting new FT entry found!!
7767000: system.cpu.l1d.prefetcher: Updated AGT entry with:          0
7768000: system.cpu.l1d.prefetcher: Updated AGT entry with:          0
7872000: system.cpu.l1i.prefetcher: INSERTENTRY(): spatio_region:       0XE0, pc:   0x470100, physical addr:    0x70100
7872000: system.cpu.l1i.prefetcher: Created FT entry with:   0x470100
7872000: system.cpu.l1i.prefetcher: CONGRATS: SUCCESS in inserting new FT entry found!!
8125000: system.cpu.l1i.prefetcher: INSERTENTRY(): spatio_region:       0XE0, pc:   0x470140, physical addr:    0x70140
8125000: system.cpu.l1i.prefetcher: Created FT entry with:   0x470140
8125000: system.cpu.l1i.prefetcher: CONGRATS: SUCCESS in inserting new FT entry found!!
8189000: system.cpu.l1i.prefetcher: INSERTENTRY(): spatio_region:       0XE0, pc:   0x470180, physical addr:    0x70180
8189000: system.cpu.l1i.prefetcher: Created FT entry with:   0x470180
8189000: system.cpu.l1i.prefetcher: CONGRATS: SUCCESS in inserting new FT entry found!!
8281000: system.cpu.l1i.prefetcher: INSERTENTRY(): spatio_region:       0X44, pc:   0x422480, physical addr:    0x22480
8281000: system.cpu.l1i.prefetcher: Created FT entry with:   0x422480
8281000: system.cpu.l1i.prefetcher: CONGRATS: SUCCESS in inserting new FT entry found!!
8358000: system.cpu.l1i.prefetcher: INSERTENTRY(): spatio_region:       0X44, pc:   0x4224c0, physical addr:    0x224c0
8358000: system.cpu.l1i.prefetcher: Created FT entry with:   0x4224c0
8358000: system.cpu.l1i.prefetcher: CONGRATS: SUCCESS in inserting new FT entry found!!
8469000: system.cpu.l1d.prefetcher: Updated AGT entry with:          0
8547000: system.cpu.l1i.prefetcher: INSERTENTRY(): spatio_region:      0X109, pc:   0x484ca0, physical addr:    0x84c80
8547000: system.cpu.l1i.prefetcher: Created FT entry with:   0x484ca0
8547000: system.cpu.l1i.prefetcher: CONGRATS: SUCCESS in inserting new FT entry found!!
8672000: system.cpu.l1i.prefetcher: INSERTENTRY(): spatio_region:       0X44, pc:   0x422640, physical addr:    0x22640
8672000: system.cpu.l1i.prefetcher: Created FT entry with:   0x422640
8672000: system.cpu.l1i.prefetcher: CONGRATS: SUCCESS in inserting new FT entry found!!
8736000: system.cpu.l1i.prefetcher: INSERTENTRY(): spatio_region:       0X44, pc:   0x422680, physical addr:    0x22680
8736000: system.cpu.l1i.prefetcher: Created FT entry with:   0x422680
8736000: system.cpu.l1i.prefetcher: CONGRATS: SUCCESS in inserting new FT entry found!!
8804000: system.cpu.l1i.prefetcher: INSERTENTRY(): spatio_region:       0X44, pc:   0x4226c0, physical addr:    0x226c0
8804000: system.cpu.l1i.prefetcher: Created FT entry with:   0x4226c0
8804000: system.cpu.l1i.prefetcher: CONGRATS: SUCCESS in inserting new FT entry found!!
8896000: system.cpu.l1i.prefetcher: INSERTENTRY(): spatio_region:       0X44, pc:   0x422350, physical addr:    0x22340
8896000: system.cpu.l1i.prefetcher: Created FT entry with:   0x422350
8896000: system.cpu.l1i.prefetcher: CONGRATS: SUCCESS in inserting new FT entry found!!
8960000: system.cpu.l1i.prefetcher: INSERTENTRY(): spatio_region:       0X44, pc:   0x422380, physical addr:    0x22380
8960000: system.cpu.l1i.prefetcher: Created FT entry with:   0x422380
8960000: system.cpu.l1i.prefetcher: CONGRATS: SUCCESS in inserting new FT entry found!!
9024000: system.cpu.l1i.prefetcher: INSERTENTRY(): spatio_region:       0X44, pc:   0x4223c0, physical addr:    0x223c0
9024000: system.cpu.l1i.prefetcher: Created FT entry with:   0x4223c0
9024000: system.cpu.l1i.prefetcher: CONGRATS: SUCCESS in inserting new FT entry found!!
9097000: system.cpu.l1d.prefetcher: INSERTENTRY(): spatio_region:      0X17E, pc:   0x402318, physical addr:    0xbf078
9097000: system.cpu.l1d.prefetcher: Created FT entry with:   0x402318
9097000: system.cpu.l1d.prefetcher: CONGRATS: SUCCESS in inserting new FT entry found!!
9098000: system.cpu.l1d.prefetcher: Updated AGT entry with:          0
9199000: system.cpu.l1i.prefetcher: INSERTENTRY(): spatio_region:       0X43, pc:   0x421b40, physical addr:    0x21b40
9199000: system.cpu.l1i.prefetcher: Created FT entry with:   0x421b40
9199000: system.cpu.l1i.prefetcher: CONGRATS: SUCCESS in inserting new FT entry found!!
9294000: system.cpu.l1i.prefetcher: INSERTENTRY(): spatio_region:       0X43, pc:   0x421b80, physical addr:    0x21b80
9294000: system.cpu.l1i.prefetcher: Created FT entry with:   0x421b80
9294000: system.cpu.l1i.prefetcher: CONGRATS: SUCCESS in inserting new FT entry found!!
9386000: system.cpu.l1i.prefetcher: INSERTENTRY(): spatio_region:       0X44, pc:   0x422330, physical addr:    0x22300
9386000: system.cpu.l1i.prefetcher: Created FT entry with:   0x422330
9386000: system.cpu.l1i.prefetcher: CONGRATS: SUCCESS in inserting new FT entry found!!
9461000: system.cpu.l1i.prefetcher: INSERTENTRY(): spatio_region:       0X44, pc:   0x422400, physical addr:    0x22400
9461000: system.cpu.l1i.prefetcher: Created FT entry with:   0x422400
9461000: system.cpu.l1i.prefetcher: CONGRATS: SUCCESS in inserting new FT entry found!!
9553000: system.cpu.l1i.prefetcher: INSERTENTRY(): spatio_region:       0XDC, pc:   0x46e1a0, physical addr:    0x6e180
9553000: system.cpu.l1i.prefetcher: Created FT entry with:   0x46e1a0
9553000: system.cpu.l1i.prefetcher: CONGRATS: SUCCESS in inserting new FT entry found!!
9630000: system.cpu.l1i.prefetcher: INSERTENTRY(): spatio_region:       0XDC, pc:   0x46e1c0, physical addr:    0x6e1c0
9630000: system.cpu.l1i.prefetcher: Created FT entry with:   0x46e1c0
9630000: system.cpu.l1i.prefetcher: CONGRATS: SUCCESS in inserting new FT entry found!!
9694000: system.cpu.l1i.prefetcher: INSERTENTRY(): spatio_region:       0XDC, pc:   0x46e200, physical addr:    0x6e200
9694000: system.cpu.l1i.prefetcher: Created FT entry with:   0x46e200
9694000: system.cpu.l1i.prefetcher: CONGRATS: SUCCESS in inserting new FT entry found!!
9768000: system.cpu.l1d.prefetcher: Updated AGT entry with:          0
9769000: system.cpu.l1d.prefetcher: Updated AGT entry with:          0
9873000: system.cpu.l1i.prefetcher: INSERTENTRY(): spatio_region:       0X44, pc:   0x422790, physical addr:    0x22780
9873000: system.cpu.l1i.prefetcher: Created FT entry with:   0x422790
9873000: system.cpu.l1i.prefetcher: CONGRATS: SUCCESS in inserting new FT entry found!!
9937000: system.cpu.l1i.prefetcher: INSERTENTRY(): spatio_region:       0X44, pc:   0x4227c0, physical addr:    0x227c0
9937000: system.cpu.l1i.prefetcher: Created FT entry with:   0x4227c0
9937000: system.cpu.l1i.prefetcher: CONGRATS: SUCCESS in inserting new FT entry found!!
10001000: system.cpu.l1i.prefetcher: INSERTENTRY(): spatio_region:       0X45, pc:   0x422800, physical addr:    0x22800
10001000: system.cpu.l1i.prefetcher: Created FT entry with:   0x422800
10001000: system.cpu.l1i.prefetcher: CONGRATS: SUCCESS in inserting new FT entry found!!
10147000: system.cpu.l1d.prefetcher: Updated AGT entry with:          0
10212000: system.cpu.l1i.prefetcher: INSERTENTRY(): spatio_region:       0XDC, pc:   0x46e0e0, physical addr:    0x6e0c0
10212000: system.cpu.l1i.prefetcher: Created FT entry with:   0x46e0e0
10212000: system.cpu.l1i.prefetcher: CONGRATS: SUCCESS in inserting new FT entry found!!
10276000: system.cpu.l1i.prefetcher: INSERTENTRY(): spatio_region:       0XDC, pc:   0x46e100, physical addr:    0x6e100
10276000: system.cpu.l1i.prefetcher: Created FT entry with:   0x46e100
10276000: system.cpu.l1i.prefetcher: CONGRATS: SUCCESS in inserting new FT entry found!!
10340000: system.cpu.l1i.prefetcher: INSERTENTRY(): spatio_region:       0XDC, pc:   0x46e140, physical addr:    0x6e140
10340000: system.cpu.l1i.prefetcher: Created FT entry with:   0x46e140
10340000: system.cpu.l1i.prefetcher: CONGRATS: SUCCESS in inserting new FT entry found!!
10432000: system.cpu.l1i.prefetcher: INSERTENTRY(): spatio_region:       0XDF, pc:   0x46f9f0, physical addr:    0x6f9c0
10432000: system.cpu.l1i.prefetcher: Created FT entry with:   0x46f9f0
10432000: system.cpu.l1i.prefetcher: CONGRATS: SUCCESS in inserting new FT entry found!!
10496000: system.cpu.l1i.prefetcher: INSERTENTRY(): spatio_region:       0XDF, pc:   0x46fa00, physical addr:    0x6fa00
10496000: system.cpu.l1i.prefetcher: Created FT entry with:   0x46fa00
10496000: system.cpu.l1i.prefetcher: CONGRATS: SUCCESS in inserting new FT entry found!!
10560000: system.cpu.l1i.prefetcher: INSERTENTRY(): spatio_region:       0XDF, pc:   0x46fa40, physical addr:    0x6fa40
10560000: system.cpu.l1i.prefetcher: Created FT entry with:   0x46fa40
10560000: system.cpu.l1i.prefetcher: CONGRATS: SUCCESS in inserting new FT entry found!!
10656000: system.cpu.l1i.prefetcher: INSERTENTRY(): spatio_region:       0X44, pc:   0x422700, physical addr:    0x22700
10656000: system.cpu.l1i.prefetcher: Created FT entry with:   0x422700
10656000: system.cpu.l1i.prefetcher: CONGRATS: SUCCESS in inserting new FT entry found!!
10724000: system.cpu.l1i.prefetcher: INSERTENTRY(): spatio_region:       0X44, pc:   0x422740, physical addr:    0x22740
10724000: system.cpu.l1i.prefetcher: Created FT entry with:   0x422740
10724000: system.cpu.l1i.prefetcher: CONGRATS: SUCCESS in inserting new FT entry found!!
10815000: system.cpu.l1d.prefetcher: INSERTENTRY(): spatio_region:      0X17E, pc:   0x402318, physical addr:    0xbf038
10815000: system.cpu.l1d.prefetcher: Created FT entry with:   0x402318
10815000: system.cpu.l1d.prefetcher: CONGRATS: SUCCESS in inserting new FT entry found!!
10816000: system.cpu.l1d.prefetcher: Updated AGT entry with:          0
10916000: system.cpu.l1i.prefetcher: INSERTENTRY(): spatio_region:       0X45, pc:   0x422840, physical addr:    0x22840
10916000: system.cpu.l1i.prefetcher: Created FT entry with:   0x422840
10916000: system.cpu.l1i.prefetcher: CONGRATS: SUCCESS in inserting new FT entry found!!
11013000: system.cpu.l1i.prefetcher: INSERTENTRY(): spatio_region:       0X44, pc:   0x422440, physical addr:    0x22440
11013000: system.cpu.l1i.prefetcher: Created FT entry with:   0x422440
11013000: system.cpu.l1i.prefetcher: CONGRATS: SUCCESS in inserting new FT entry found!!
11154000: system.cpu.l1i.prefetcher: INSERTENTRY(): spatio_region:       0XDC, pc:   0x46e0a0, physical addr:    0x6e080
11154000: system.cpu.l1i.prefetcher: Created FT entry with:   0x46e0a0
11154000: system.cpu.l1i.prefetcher: CONGRATS: SUCCESS in inserting new FT entry found!!
11247000: system.cpu.l1d.prefetcher: Updated AGT entry with:          0
11248000: system.cpu.l1d.prefetcher: Updated AGT entry with:          0
11372000: system.cpu.l1i.prefetcher: INSERTENTRY(): spatio_region:        0X4, pc:   0x40244b, physical addr:     0x2440
11372000: system.cpu.l1i.prefetcher: Created FT entry with:   0x40244b
11372000: system.cpu.l1i.prefetcher: CONGRATS: SUCCESS in inserting new FT entry found!!
11463000: system.cpu.l1i.prefetcher: INSERTENTRY(): spatio_region:        0X4, pc:   0x402480, physical addr:     0x2480
11463000: system.cpu.l1i.prefetcher: Created FT entry with:   0x402480
11463000: system.cpu.l1i.prefetcher: CONGRATS: SUCCESS in inserting new FT entry found!!
11527000: system.cpu.l1i.prefetcher: INSERTENTRY(): spatio_region:        0X5, pc:   0x402aa0, physical addr:     0x2a80
11527000: system.cpu.l1i.prefetcher: Created FT entry with:   0x402aa0
11527000: system.cpu.l1i.prefetcher: CONGRATS: SUCCESS in inserting new FT entry found!!
11591000: system.cpu.l1i.prefetcher: INSERTENTRY(): spatio_region:        0X5, pc:   0x402ac0, physical addr:     0x2ac0
11591000: system.cpu.l1i.prefetcher: Created FT entry with:   0x402ac0
11591000: system.cpu.l1i.prefetcher: CONGRATS: SUCCESS in inserting new FT entry found!!
11616000: system.cpu.l1d.prefetcher: INSERTENTRY(): spatio_region:      0X180, pc:   0x402ab9, physical addr:    0xc0180
11616000: system.cpu.l1d.prefetcher: Created FT entry with:   0x402ab9
11616000: system.cpu.l1d.prefetcher: CONGRATS: SUCCESS in inserting new FT entry found!!
11655000: system.cpu.l1i.prefetcher: INSERTENTRY(): spatio_region:        0X5, pc:   0x402b00, physical addr:     0x2b00
11655000: system.cpu.l1i.prefetcher: Created FT entry with:   0x402b00
11655000: system.cpu.l1i.prefetcher: CONGRATS: SUCCESS in inserting new FT entry found!!
11722000: system.cpu.l1i.prefetcher: INSERTENTRY(): spatio_region:        0X5, pc:   0x402b40, physical addr:     0x2b40
11722000: system.cpu.l1i.prefetcher: Created FT entry with:   0x402b40
11722000: system.cpu.l1i.prefetcher: CONGRATS: SUCCESS in inserting new FT entry found!!
11723000: system.cpu.l1d.prefetcher: Updated AGT entry with:          0
11786000: system.cpu.l1i.prefetcher: INSERTENTRY(): spatio_region:        0X5, pc:   0x402b80, physical addr:     0x2b80
11786000: system.cpu.l1i.prefetcher: Created FT entry with:   0x402b80
11786000: system.cpu.l1i.prefetcher: CONGRATS: SUCCESS in inserting new FT entry found!!
11862000: system.cpu.l1d.prefetcher: Updated AGT entry with:          0
11863000: system.cpu.l1d.prefetcher: Updated AGT entry with:          0
11864000: system.cpu.l1i.prefetcher: INSERTENTRY(): spatio_region:        0X5, pc:   0x402bc0, physical addr:     0x2bc0
11864000: system.cpu.l1i.prefetcher: Created FT entry with:   0x402bc0
11864000: system.cpu.l1i.prefetcher: CONGRATS: SUCCESS in inserting new FT entry found!!
11942000: system.cpu.l1d.prefetcher: Updated AGT entry with:          0
11943000: system.cpu.l1d.prefetcher: Updated AGT entry with:          0
12013000: system.cpu.l1d.prefetcher: Updated AGT entry with:          0
12014000: system.cpu.l1d.prefetcher: Updated AGT entry with:          0
12084000: system.cpu.l1d.prefetcher: Updated AGT entry with:          0
12085000: system.cpu.l1d.prefetcher: Updated AGT entry with:          0
12155000: system.cpu.l1d.prefetcher: Updated AGT entry with:          0
12156000: system.cpu.l1d.prefetcher: Updated AGT entry with:          0
12226000: system.cpu.l1d.prefetcher: Updated AGT entry with:          0
12293000: system.cpu.l1d.prefetcher: INSERTENTRY(): spatio_region:      0X180, pc:   0x402b24, physical addr:    0xc0220
12293000: system.cpu.l1d.prefetcher: Created FT entry with:   0x402b24
12293000: system.cpu.l1d.prefetcher: CONGRATS: SUCCESS in inserting new FT entry found!!
12456000: system.cpu.l1i.prefetcher: INSERTENTRY(): spatio_region:        0X5, pc:   0x402c00, physical addr:     0x2c00
12456000: system.cpu.l1i.prefetcher: Created FT entry with:   0x402c00
12456000: system.cpu.l1i.prefetcher: CONGRATS: SUCCESS in inserting new FT entry found!!
12520000: system.cpu.l1i.prefetcher: INSERTENTRY(): spatio_region:       0X92, pc:   0x449210, physical addr:    0x49200
12520000: system.cpu.l1i.prefetcher: Created FT entry with:   0x449210
12520000: system.cpu.l1i.prefetcher: CONGRATS: SUCCESS in inserting new FT entry found!!
12597000: system.cpu.l1i.prefetcher: INSERTENTRY(): spatio_region:       0X92, pc:   0x449240, physical addr:    0x49240
12597000: system.cpu.l1i.prefetcher: Created FT entry with:   0x449240
12597000: system.cpu.l1i.prefetcher: CONGRATS: SUCCESS in inserting new FT entry found!!
12608000: system.cpu.l1d.prefetcher: INSERTENTRY(): spatio_region:      0X183, pc:   0x44921e, physical addr:    0xc1f38
12608000: system.cpu.l1d.prefetcher: Created FT entry with:   0x44921e
12608000: system.cpu.l1d.prefetcher: CONGRATS: SUCCESS in inserting new FT entry found!!
12661000: system.cpu.l1i.prefetcher: INSERTENTRY(): spatio_region:       0X92, pc:   0x449280, physical addr:    0x49280
12661000: system.cpu.l1i.prefetcher: Created FT entry with:   0x449280
12661000: system.cpu.l1i.prefetcher: CONGRATS: SUCCESS in inserting new FT entry found!!
12729000: system.cpu.l1i.prefetcher: INSERTENTRY(): spatio_region:       0X92, pc:   0x4492c0, physical addr:    0x492c0
12729000: system.cpu.l1i.prefetcher: Created FT entry with:   0x4492c0
12729000: system.cpu.l1i.prefetcher: CONGRATS: SUCCESS in inserting new FT entry found!!
12793000: system.cpu.l1i.prefetcher: INSERTENTRY(): spatio_region:       0XE2, pc:   0x471510, physical addr:    0x71500
12793000: system.cpu.l1i.prefetcher: Created FT entry with:   0x471510
12793000: system.cpu.l1i.prefetcher: CONGRATS: SUCCESS in inserting new FT entry found!!
12857000: system.cpu.l1i.prefetcher: INSERTENTRY(): spatio_region:       0XE2, pc:   0x471540, physical addr:    0x71540
12857000: system.cpu.l1i.prefetcher: Created FT entry with:   0x471540
12857000: system.cpu.l1i.prefetcher: CONGRATS: SUCCESS in inserting new FT entry found!!
12925000: system.cpu.l1i.prefetcher: INSERTENTRY(): spatio_region:       0XE2, pc:   0x471580, physical addr:    0x71580
12925000: system.cpu.l1i.prefetcher: Created FT entry with:   0x471580
12925000: system.cpu.l1i.prefetcher: CONGRATS: SUCCESS in inserting new FT entry found!!
12999000: system.cpu.l1i.prefetcher: INSERTENTRY(): spatio_region:       0X92, pc:   0x449300, physical addr:    0x49300
12999000: system.cpu.l1i.prefetcher: Created FT entry with:   0x449300
12999000: system.cpu.l1i.prefetcher: CONGRATS: SUCCESS in inserting new FT entry found!!
13114000: system.cpu.l1i.prefetcher: INSERTENTRY(): spatio_region:       0XE2, pc:   0x4715c0, physical addr:    0x715c0
13114000: system.cpu.l1i.prefetcher: Created FT entry with:   0x4715c0
13114000: system.cpu.l1i.prefetcher: CONGRATS: SUCCESS in inserting new FT entry found!!
13187000: system.cpu.l1i.prefetcher: INSERTENTRY(): spatio_region:       0X92, pc:   0x449340, physical addr:    0x49340
13187000: system.cpu.l1i.prefetcher: Created FT entry with:   0x449340
13187000: system.cpu.l1i.prefetcher: CONGRATS: SUCCESS in inserting new FT entry found!!
13260000: system.cpu.l1d.prefetcher: INSERTENTRY(): spatio_region:      0X184, pc:   0x402b60, physical addr:    0xc2320
13260000: system.cpu.l1d.prefetcher: Created FT entry with:   0x402b60
13260000: system.cpu.l1d.prefetcher: CONGRATS: SUCCESS in inserting new FT entry found!!
13314000: system.cpu.l1i.prefetcher: INSERTENTRY(): spatio_region:        0X5, pc:   0x402c40, physical addr:     0x2c40
13314000: system.cpu.l1i.prefetcher: Created FT entry with:   0x402c40
13314000: system.cpu.l1i.prefetcher: CONGRATS: SUCCESS in inserting new FT entry found!!
13341000: system.cpu.l1d.prefetcher: INSERTENTRY(): spatio_region:      0X180, pc:   0x402bb2, physical addr:    0xc0670
13341000: system.cpu.l1d.prefetcher: Created FT entry with:   0x402bb2
13341000: system.cpu.l1d.prefetcher: CONGRATS: SUCCESS in inserting new FT entry found!!
13349000: system.cpu.l1d.prefetcher: Updated AGT entry with:          0
13405000: system.cpu.l1i.prefetcher: INSERTENTRY(): spatio_region:        0X2, pc:   0x401060, physical addr:     0x1040
13405000: system.cpu.l1i.prefetcher: Created FT entry with:   0x401060
13405000: system.cpu.l1i.prefetcher: CONGRATS: SUCCESS in inserting new FT entry found!!
13406000: system.cpu.l1d.prefetcher: Updated AGT entry with:          0
13496000: system.cpu.l1i.prefetcher: INSERTENTRY(): spatio_region:        0X2, pc:   0x401080, physical addr:     0x1080
13496000: system.cpu.l1i.prefetcher: Created FT entry with:   0x401080
13496000: system.cpu.l1i.prefetcher: CONGRATS: SUCCESS in inserting new FT entry found!!
13560000: system.cpu.l1i.prefetcher: INSERTENTRY(): spatio_region:       0X8B, pc:   0x445a20, physical addr:    0x45a00
13560000: system.cpu.l1i.prefetcher: Created FT entry with:   0x445a20
13560000: system.cpu.l1i.prefetcher: CONGRATS: SUCCESS in inserting new FT entry found!!
13651000: system.cpu.l1i.prefetcher: INSERTENTRY(): spatio_region:       0X8B, pc:   0x445a40, physical addr:    0x45a40
13651000: system.cpu.l1i.prefetcher: Created FT entry with:   0x445a40
13651000: system.cpu.l1i.prefetcher: CONGRATS: SUCCESS in inserting new FT entry found!!
13660000: system.cpu.l1d.prefetcher: INSERTENTRY(): spatio_region:      0X178, pc:   0x445a3b, physical addr:    0xbc0c0
13660000: system.cpu.l1d.prefetcher: Created FT entry with:   0x445a3b
13660000: system.cpu.l1d.prefetcher: CONGRATS: SUCCESS in inserting new FT entry found!!
13661000: system.cpu.l1d.prefetcher: Updated AGT entry with:          0
13715000: system.cpu.l1i.prefetcher: INSERTENTRY(): spatio_region:       0X8B, pc:   0x445a80, physical addr:    0x45a80
13715000: system.cpu.l1i.prefetcher: Created FT entry with:   0x445a80
13715000: system.cpu.l1i.prefetcher: CONGRATS: SUCCESS in inserting new FT entry found!!
13784000: system.cpu.l1i.prefetcher: INSERTENTRY(): spatio_region:       0X8B, pc:   0x445ac0, physical addr:    0x45ac0
13784000: system.cpu.l1i.prefetcher: Created FT entry with:   0x445ac0
13784000: system.cpu.l1i.prefetcher: CONGRATS: SUCCESS in inserting new FT entry found!!
13785000: system.cpu.l1d.prefetcher: INSERTENTRY(): spatio_region:      0X18B, pc:   0x445a43, physical addr:    0xc5820
13785000: system.cpu.l1d.prefetcher: Created FT entry with:   0x445a43
13785000: system.cpu.l1d.prefetcher: CONGRATS: SUCCESS in inserting new FT entry found!!
13786000: system.cpu.l1d.prefetcher: INSERTENTRY(): spatio_region:      0X18B, pc:   0x445a43, physical addr:    0xc5828
13786000: system.cpu.l1d.prefetcher: Created FT entry with:   0x445a43
13786000: system.cpu.l1d.prefetcher: CONGRATS: SUCCESS in inserting new FT entry found!!
13894000: system.cpu.l1i.prefetcher: INSERTENTRY(): spatio_region:        0X5, pc:   0x402c80, physical addr:     0x2c80
13894000: system.cpu.l1i.prefetcher: Created FT entry with:   0x402c80
13894000: system.cpu.l1i.prefetcher: CONGRATS: SUCCESS in inserting new FT entry found!!
13897000: system.cpu.l1d.prefetcher: INSERTENTRY(): spatio_region:      0X18B, pc:   0x402be5, physical addr:    0xc5888
13897000: system.cpu.l1d.prefetcher: Created FT entry with:   0x402be5
13897000: system.cpu.l1d.prefetcher: CONGRATS: SUCCESS in inserting new FT entry found!!
13900000: system.cpu.l1d.prefetcher: Updated AGT entry with:          0
13994000: system.cpu.l1i.prefetcher: INSERTENTRY(): spatio_region:        0X5, pc:   0x402cc0, physical addr:     0x2cc0
13994000: system.cpu.l1i.prefetcher: Created FT entry with:   0x402cc0
13994000: system.cpu.l1i.prefetcher: CONGRATS: SUCCESS in inserting new FT entry found!!
14072000: system.cpu.l1d.prefetcher: Updated AGT entry with:          0
14081000: system.cpu.l1d.prefetcher: INSERTENTRY(): spatio_region:      0X182, pc:   0x402c4f, physical addr:    0xc12b8
14081000: system.cpu.l1d.prefetcher: Created FT entry with:   0x402c4f
14081000: system.cpu.l1d.prefetcher: CONGRATS: SUCCESS in inserting new FT entry found!!
14081000: system.cpu.l1i.prefetcher: INSERTENTRY(): spatio_region:        0X5, pc:   0x402d00, physical addr:     0x2d00
14081000: system.cpu.l1i.prefetcher: Created FT entry with:   0x402d00
14081000: system.cpu.l1i.prefetcher: CONGRATS: SUCCESS in inserting new FT entry found!!
14165000: system.cpu.l1d.prefetcher: INSERTENTRY(): spatio_region:      0X182, pc:   0x402c75, physical addr:    0xc1290
14165000: system.cpu.l1d.prefetcher: Created FT entry with:   0x402c75
14165000: system.cpu.l1d.prefetcher: CONGRATS: SUCCESS in inserting new FT entry found!!
14214000: system.cpu.l1i.prefetcher: INSERTENTRY(): spatio_region:        0X5, pc:   0x402d40, physical addr:     0x2d40
14214000: system.cpu.l1i.prefetcher: Created FT entry with:   0x402d40
14214000: system.cpu.l1i.prefetcher: CONGRATS: SUCCESS in inserting new FT entry found!!
14282000: system.cpu.l1i.prefetcher: INSERTENTRY(): spatio_region:        0X4, pc:   0x4024c0, physical addr:     0x24c0
14282000: system.cpu.l1i.prefetcher: Created FT entry with:   0x4024c0
14282000: system.cpu.l1i.prefetcher: CONGRATS: SUCCESS in inserting new FT entry found!!
14288000: system.cpu.l1d.prefetcher: Updated AGT entry with:          0
14346000: system.cpu.l1i.prefetcher: INSERTENTRY(): spatio_region:        0X4, pc:   0x4026ce, physical addr:     0x26c0
14346000: system.cpu.l1i.prefetcher: Created FT entry with:   0x4026ce
14346000: system.cpu.l1i.prefetcher: CONGRATS: SUCCESS in inserting new FT entry found!!
14410000: system.cpu.l1i.prefetcher: INSERTENTRY(): spatio_region:        0X4, pc:   0x402700, physical addr:     0x2700
14410000: system.cpu.l1i.prefetcher: Created FT entry with:   0x402700
14410000: system.cpu.l1i.prefetcher: CONGRATS: SUCCESS in inserting new FT entry found!!
14474000: system.cpu.l1i.prefetcher: INSERTENTRY(): spatio_region:       0X9C, pc:   0x44e2f0, physical addr:    0x4e2c0
14474000: system.cpu.l1i.prefetcher: Created FT entry with:   0x44e2f0
14474000: system.cpu.l1i.prefetcher: CONGRATS: SUCCESS in inserting new FT entry found!!
14565000: system.cpu.l1i.prefetcher: INSERTENTRY(): spatio_region:       0X9C, pc:   0x44e300, physical addr:    0x4e300
14565000: system.cpu.l1i.prefetcher: Created FT entry with:   0x44e300
14565000: system.cpu.l1i.prefetcher: CONGRATS: SUCCESS in inserting new FT entry found!!
14629000: system.cpu.l1i.prefetcher: INSERTENTRY(): spatio_region:       0X9C, pc:   0x44e340, physical addr:    0x4e340
14629000: system.cpu.l1i.prefetcher: Created FT entry with:   0x44e340
14629000: system.cpu.l1i.prefetcher: CONGRATS: SUCCESS in inserting new FT entry found!!
14636000: system.cpu.l1d.prefetcher: INSERTENTRY(): spatio_region:      0X187, pc:   0x44e304, physical addr:    0xc3b28
14636000: system.cpu.l1d.prefetcher: Created FT entry with:   0x44e304
14636000: system.cpu.l1d.prefetcher: CONGRATS: SUCCESS in inserting new FT entry found!!
14693000: system.cpu.l1i.prefetcher: INSERTENTRY(): spatio_region:       0XE2, pc:   0x4712c0, physical addr:    0x712c0
14693000: system.cpu.l1i.prefetcher: Created FT entry with:   0x4712c0
14693000: system.cpu.l1i.prefetcher: CONGRATS: SUCCESS in inserting new FT entry found!!
14757000: system.cpu.l1i.prefetcher: INSERTENTRY(): spatio_region:       0XE2, pc:   0x471300, physical addr:    0x71300
14757000: system.cpu.l1i.prefetcher: Created FT entry with:   0x471300
14757000: system.cpu.l1i.prefetcher: CONGRATS: SUCCESS in inserting new FT entry found!!
14826000: system.cpu.l1i.prefetcher: INSERTENTRY(): spatio_region:       0XE2, pc:   0x471340, physical addr:    0x71340
14826000: system.cpu.l1i.prefetcher: Created FT entry with:   0x471340
14826000: system.cpu.l1i.prefetcher: CONGRATS: SUCCESS in inserting new FT entry found!!
14895000: system.cpu.l1i.prefetcher: INSERTENTRY(): spatio_region:       0X9C, pc:   0x44e380, physical addr:    0x4e380
14895000: system.cpu.l1i.prefetcher: Created FT entry with:   0x44e380
14895000: system.cpu.l1i.prefetcher: CONGRATS: SUCCESS in inserting new FT entry found!!
14898000: system.cpu.l1d.prefetcher: Updated AGT entry with:          0
14965000: system.cpu.l1i.prefetcher: INSERTENTRY(): spatio_region:       0X9C, pc:   0x44e3c0, physical addr:    0x4e3c0
14965000: system.cpu.l1i.prefetcher: Created FT entry with:   0x44e3c0
14965000: system.cpu.l1i.prefetcher: CONGRATS: SUCCESS in inserting new FT entry found!!
15133000: system.cpu.l1i.prefetcher: INSERTENTRY(): spatio_region:       0X9C, pc:   0x44e400, physical addr:    0x4e400
15133000: system.cpu.l1i.prefetcher: Created FT entry with:   0x44e400
15133000: system.cpu.l1i.prefetcher: CONGRATS: SUCCESS in inserting new FT entry found!!
15223000: system.cpu.l1i.prefetcher: INSERTENTRY(): spatio_region:        0X4, pc:   0x402740, physical addr:     0x2740
15223000: system.cpu.l1i.prefetcher: Created FT entry with:   0x402740
15223000: system.cpu.l1i.prefetcher: CONGRATS: SUCCESS in inserting new FT entry found!!
15320000: system.cpu.l1i.prefetcher: INSERTENTRY(): spatio_region:        0X4, pc:   0x402500, physical addr:     0x2500
15320000: system.cpu.l1i.prefetcher: Created FT entry with:   0x402500
15320000: system.cpu.l1i.prefetcher: CONGRATS: SUCCESS in inserting new FT entry found!!
15321000: system.cpu.l1d.prefetcher: INSERTENTRY(): spatio_region:      0X17D, pc:   0x402480, physical addr:    0xbef80
15321000: system.cpu.l1d.prefetcher: Created FT entry with:   0x402480
15321000: system.cpu.l1d.prefetcher: CONGRATS: SUCCESS in inserting new FT entry found!!
15406000: system.cpu.l1i.prefetcher: INSERTENTRY(): spatio_region:        0X4, pc:   0x402540, physical addr:     0x2540
15406000: system.cpu.l1i.prefetcher: Created FT entry with:   0x402540
15406000: system.cpu.l1i.prefetcher: CONGRATS: SUCCESS in inserting new FT entry found!!
15488000: system.cpu.l1i.prefetcher: INSERTENTRY(): spatio_region:       0X9C, pc:   0x44e440, physical addr:    0x4e440
15488000: system.cpu.l1i.prefetcher: Created FT entry with:   0x44e440
15488000: system.cpu.l1i.prefetcher: CONGRATS: SUCCESS in inserting new FT entry found!!
15554000: system.cpu.l1i.prefetcher: INSERTENTRY(): spatio_region:       0X9C, pc:   0x44e480, physical addr:    0x4e480
15554000: system.cpu.l1i.prefetcher: Created FT entry with:   0x44e480
15554000: system.cpu.l1i.prefetcher: CONGRATS: SUCCESS in inserting new FT entry found!!
15559000: system.cpu.l1d.prefetcher: INSERTENTRY(): spatio_region:      0X181, pc:   0x44e460, physical addr:    0xc0a68
15559000: system.cpu.l1d.prefetcher: Created FT entry with:   0x44e460
15559000: system.cpu.l1d.prefetcher: CONGRATS: SUCCESS in inserting new FT entry found!!
15618000: system.cpu.l1i.prefetcher: INSERTENTRY(): spatio_region:       0X9C, pc:   0x44e4c0, physical addr:    0x4e4c0
15618000: system.cpu.l1i.prefetcher: Created FT entry with:   0x44e4c0
15618000: system.cpu.l1i.prefetcher: CONGRATS: SUCCESS in inserting new FT entry found!!
15961000: system.cpu.l1d.prefetcher: Updated AGT entry with:          0
15964000: system.cpu.l1i.prefetcher: INSERTENTRY(): spatio_region:       0XF7, pc:   0x47bbd0, physical addr:    0x7bbc0
15964000: system.cpu.l1i.prefetcher: Created FT entry with:   0x47bbd0
15964000: system.cpu.l1i.prefetcher: CONGRATS: SUCCESS in inserting new FT entry found!!
16045000: system.cpu.l1i.prefetcher: INSERTENTRY(): spatio_region:       0XF7, pc:   0x47bc00, physical addr:    0x7bc00
16045000: system.cpu.l1i.prefetcher: Created FT entry with:   0x47bc00
16045000: system.cpu.l1i.prefetcher: CONGRATS: SUCCESS in inserting new FT entry found!!
16113000: system.cpu.l1i.prefetcher: INSERTENTRY(): spatio_region:       0XF7, pc:   0x47bc40, physical addr:    0x7bc40
16113000: system.cpu.l1i.prefetcher: Created FT entry with:   0x47bc40
16113000: system.cpu.l1i.prefetcher: CONGRATS: SUCCESS in inserting new FT entry found!!
16114000: system.cpu.l1d.prefetcher: INSERTENTRY(): spatio_region:      0X18D, pc:   0x47bbe1, physical addr:    0xc6c58
16114000: system.cpu.l1d.prefetcher: Created FT entry with:   0x47bbe1
16114000: system.cpu.l1d.prefetcher: CONGRATS: SUCCESS in inserting new FT entry found!!
16177000: system.cpu.l1i.prefetcher: INSERTENTRY(): spatio_region:       0XF7, pc:   0x47bc80, physical addr:    0x7bc80
16177000: system.cpu.l1i.prefetcher: Created FT entry with:   0x47bc80
16177000: system.cpu.l1i.prefetcher: CONGRATS: SUCCESS in inserting new FT entry found!!
16260000: system.cpu.l1i.prefetcher: INSERTENTRY(): spatio_region:       0XF7, pc:   0x47bcc0, physical addr:    0x7bcc0
16260000: system.cpu.l1i.prefetcher: Created FT entry with:   0x47bcc0
16260000: system.cpu.l1i.prefetcher: CONGRATS: SUCCESS in inserting new FT entry found!!
16344000: system.cpu.l1d.prefetcher: Updated AGT entry with:          0
16581000: system.cpu.l1i.prefetcher: INSERTENTRY(): spatio_region:       0XF7, pc:   0x47bd00, physical addr:    0x7bd00
16581000: system.cpu.l1i.prefetcher: Created FT entry with:   0x47bd00
16581000: system.cpu.l1i.prefetcher: CONGRATS: SUCCESS in inserting new FT entry found!!
16645000: system.cpu.l1i.prefetcher: INSERTENTRY(): spatio_region:       0X3D, pc:   0x41efd0, physical addr:    0x1efc0
16645000: system.cpu.l1i.prefetcher: Created FT entry with:   0x41efd0
16645000: system.cpu.l1i.prefetcher: CONGRATS: SUCCESS in inserting new FT entry found!!
16722000: system.cpu.l1i.prefetcher: INSERTENTRY(): spatio_region:       0X3E, pc:   0x41f000, physical addr:    0x1f000
16722000: system.cpu.l1i.prefetcher: Created FT entry with:   0x41f000
16722000: system.cpu.l1i.prefetcher: CONGRATS: SUCCESS in inserting new FT entry found!!
16728000: system.cpu.l1d.prefetcher: INSERTENTRY(): spatio_region:      0X17E, pc:   0x41efd6, physical addr:    0xbf790
16728000: system.cpu.l1d.prefetcher: Created FT entry with:   0x41efd6
16728000: system.cpu.l1d.prefetcher: CONGRATS: SUCCESS in inserting new FT entry found!!
16786000: system.cpu.l1i.prefetcher: INSERTENTRY(): spatio_region:       0X3E, pc:   0x41f040, physical addr:    0x1f040
16786000: system.cpu.l1i.prefetcher: Created FT entry with:   0x41f040
16786000: system.cpu.l1i.prefetcher: CONGRATS: SUCCESS in inserting new FT entry found!!
16821000: system.cpu.l1d.prefetcher: Updated AGT entry with:          0
16822000: system.cpu.l1d.prefetcher: Updated AGT entry with:          0
16877000: system.cpu.l1i.prefetcher: INSERTENTRY(): spatio_region:       0X3E, pc:   0x41f140, physical addr:    0x1f140
16877000: system.cpu.l1i.prefetcher: Created FT entry with:   0x41f140
16877000: system.cpu.l1i.prefetcher: CONGRATS: SUCCESS in inserting new FT entry found!!
16941000: system.cpu.l1i.prefetcher: INSERTENTRY(): spatio_region:       0X3E, pc:   0x41f180, physical addr:    0x1f180
16941000: system.cpu.l1i.prefetcher: Created FT entry with:   0x41f180
16941000: system.cpu.l1i.prefetcher: CONGRATS: SUCCESS in inserting new FT entry found!!
17005000: system.cpu.l1i.prefetcher: INSERTENTRY(): spatio_region:       0X3D, pc:   0x41ea10, physical addr:    0x1ea00
17005000: system.cpu.l1i.prefetcher: Created FT entry with:   0x41ea10
17005000: system.cpu.l1i.prefetcher: CONGRATS: SUCCESS in inserting new FT entry found!!
17069000: system.cpu.l1i.prefetcher: INSERTENTRY(): spatio_region:       0X3D, pc:   0x41ea40, physical addr:    0x1ea40
17069000: system.cpu.l1i.prefetcher: Created FT entry with:   0x41ea40
17069000: system.cpu.l1i.prefetcher: CONGRATS: SUCCESS in inserting new FT entry found!!
17074000: system.cpu.l1d.prefetcher: INSERTENTRY(): spatio_region:      0X17E, pc:   0x41ea14, physical addr:    0xbf6e4
17074000: system.cpu.l1d.prefetcher: Created FT entry with:   0x41ea14
17074000: system.cpu.l1d.prefetcher: CONGRATS: SUCCESS in inserting new FT entry found!!
17133000: system.cpu.l1i.prefetcher: INSERTENTRY(): spatio_region:       0X3D, pc:   0x41ea80, physical addr:    0x1ea80
17133000: system.cpu.l1i.prefetcher: Created FT entry with:   0x41ea80
17133000: system.cpu.l1i.prefetcher: CONGRATS: SUCCESS in inserting new FT entry found!!
17224000: system.cpu.l1i.prefetcher: INSERTENTRY(): spatio_region:       0X3D, pc:   0x41eb60, physical addr:    0x1eb40
17224000: system.cpu.l1i.prefetcher: Created FT entry with:   0x41eb60
17224000: system.cpu.l1i.prefetcher: CONGRATS: SUCCESS in inserting new FT entry found!!
17288000: system.cpu.l1i.prefetcher: INSERTENTRY(): spatio_region:       0X3D, pc:   0x41eb80, physical addr:    0x1eb80
17288000: system.cpu.l1i.prefetcher: Created FT entry with:   0x41eb80
17288000: system.cpu.l1i.prefetcher: CONGRATS: SUCCESS in inserting new FT entry found!!
17352000: system.cpu.l1i.prefetcher: INSERTENTRY(): spatio_region:       0X3B, pc:   0x41dfe0, physical addr:    0x1dfc0
17352000: system.cpu.l1i.prefetcher: Created FT entry with:   0x41dfe0
17352000: system.cpu.l1i.prefetcher: CONGRATS: SUCCESS in inserting new FT entry found!!
17429000: system.cpu.l1i.prefetcher: INSERTENTRY(): spatio_region:       0X3C, pc:   0x41e000, physical addr:    0x1e000
17429000: system.cpu.l1i.prefetcher: Created FT entry with:   0x41e000
17429000: system.cpu.l1i.prefetcher: CONGRATS: SUCCESS in inserting new FT entry found!!
17493000: system.cpu.l1i.prefetcher: INSERTENTRY(): spatio_region:       0X3C, pc:   0x41e040, physical addr:    0x1e040
17493000: system.cpu.l1i.prefetcher: Created FT entry with:   0x41e040
17493000: system.cpu.l1i.prefetcher: CONGRATS: SUCCESS in inserting new FT entry found!!
17501000: system.cpu.l1d.prefetcher: Updated AGT entry with:          0
17510000: system.cpu.l1d.prefetcher: INSERTENTRY(): spatio_region:      0X17F, pc:   0x41e02d, physical addr:    0xbf818
17510000: system.cpu.l1d.prefetcher: Created FT entry with:   0x41e02d
17510000: system.cpu.l1d.prefetcher: CONGRATS: SUCCESS in inserting new FT entry found!!
17561000: system.cpu.l1i.prefetcher: INSERTENTRY(): spatio_region:       0X3C, pc:   0x41e080, physical addr:    0x1e080
17561000: system.cpu.l1i.prefetcher: Created FT entry with:   0x41e080
17561000: system.cpu.l1i.prefetcher: CONGRATS: SUCCESS in inserting new FT entry found!!
17576000: system.cpu.l1d.prefetcher: INSERTENTRY(): spatio_region:      0X17F, pc:   0x41e02d, physical addr:    0xbf810
17576000: system.cpu.l1d.prefetcher: Created FT entry with:   0x41e02d
17576000: system.cpu.l1d.prefetcher: CONGRATS: SUCCESS in inserting new FT entry found!!
17658000: system.cpu.l1i.prefetcher: INSERTENTRY(): spatio_region:       0X3C, pc:   0x41e0c0, physical addr:    0x1e0c0
17658000: system.cpu.l1i.prefetcher: Created FT entry with:   0x41e0c0
17658000: system.cpu.l1i.prefetcher: CONGRATS: SUCCESS in inserting new FT entry found!!
17735000: system.cpu.l1d.prefetcher: INSERTENTRY(): spatio_region:      0X17F, pc:   0x41e02d, physical addr:    0xbf848
17735000: system.cpu.l1d.prefetcher: Created FT entry with:   0x41e02d
17735000: system.cpu.l1d.prefetcher: CONGRATS: SUCCESS in inserting new FT entry found!!
17736000: system.cpu.l1d.prefetcher: Updated AGT entry with:          0
17866000: system.cpu.l1d.prefetcher: Updated AGT entry with:          0
17867000: system.cpu.l1d.prefetcher: Updated AGT entry with:          0
17970000: system.cpu.l1d.prefetcher: Updated AGT entry with:          0
17971000: system.cpu.l1d.prefetcher: Updated AGT entry with:          0
18074000: system.cpu.l1d.prefetcher: Updated AGT entry with:          0
18075000: system.cpu.l1d.prefetcher: Updated AGT entry with:          0
18178000: system.cpu.l1d.prefetcher: Updated AGT entry with:          0
18179000: system.cpu.l1d.prefetcher: Updated AGT entry with:          0
18282000: system.cpu.l1d.prefetcher: Updated AGT entry with:          0
18283000: system.cpu.l1d.prefetcher: Updated AGT entry with:          0
18386000: system.cpu.l1d.prefetcher: Updated AGT entry with:          0
18387000: system.cpu.l1d.prefetcher: Updated AGT entry with:          0
18490000: system.cpu.l1d.prefetcher: Updated AGT entry with:          0
18491000: system.cpu.l1d.prefetcher: INSERTENTRY(): spatio_region:      0X17F, pc:   0x41e02d, physical addr:    0xbfa00
18491000: system.cpu.l1d.prefetcher: Created FT entry with:   0x41e02d
18491000: system.cpu.l1d.prefetcher: CONGRATS: SUCCESS in inserting new FT entry found!!
18594000: system.cpu.l1d.prefetcher: INSERTENTRY(): spatio_region:      0X17F, pc:   0x41e02d, physical addr:    0xbfa48
18594000: system.cpu.l1d.prefetcher: Created FT entry with:   0x41e02d
18594000: system.cpu.l1d.prefetcher: CONGRATS: SUCCESS in inserting new FT entry found!!
18595000: system.cpu.l1d.prefetcher: INSERTENTRY(): spatio_region:      0X17F, pc:   0x41e02d, physical addr:    0xbfa40
18595000: system.cpu.l1d.prefetcher: Created FT entry with:   0x41e02d
18595000: system.cpu.l1d.prefetcher: CONGRATS: SUCCESS in inserting new FT entry found!!
18698000: system.cpu.l1d.prefetcher: INSERTENTRY(): spatio_region:      0X17F, pc:   0x41e02d, physical addr:    0xbfa88
18698000: system.cpu.l1d.prefetcher: Created FT entry with:   0x41e02d
18698000: system.cpu.l1d.prefetcher: CONGRATS: SUCCESS in inserting new FT entry found!!
18699000: system.cpu.l1d.prefetcher: INSERTENTRY(): spatio_region:      0X17F, pc:   0x41e02d, physical addr:    0xbfa80
18699000: system.cpu.l1d.prefetcher: Created FT entry with:   0x41e02d
18699000: system.cpu.l1d.prefetcher: CONGRATS: SUCCESS in inserting new FT entry found!!
18802000: system.cpu.l1d.prefetcher: INSERTENTRY(): spatio_region:      0X17F, pc:   0x41e02d, physical addr:    0xbfac8
18802000: system.cpu.l1d.prefetcher: Created FT entry with:   0x41e02d
18802000: system.cpu.l1d.prefetcher: CONGRATS: SUCCESS in inserting new FT entry found!!
18803000: system.cpu.l1d.prefetcher: Updated AGT entry with:          0
18906000: system.cpu.l1d.prefetcher: Updated AGT entry with:          0
18907000: system.cpu.l1d.prefetcher: Updated AGT entry with:          0
19010000: system.cpu.l1d.prefetcher: Updated AGT entry with:          0
19011000: system.cpu.l1d.prefetcher: Updated AGT entry with:          0
19114000: system.cpu.l1d.prefetcher: Updated AGT entry with:          0
19115000: system.cpu.l1d.prefetcher: Updated AGT entry with:          0
19218000: system.cpu.l1d.prefetcher: Updated AGT entry with:          0
19219000: system.cpu.l1d.prefetcher: Updated AGT entry with:          0
19322000: system.cpu.l1d.prefetcher: Updated AGT entry with:          0
19323000: system.cpu.l1d.prefetcher: Updated AGT entry with:          0
19426000: system.cpu.l1d.prefetcher: Updated AGT entry with:          0
19427000: system.cpu.l1d.prefetcher: Updated AGT entry with:          0
19543000: system.cpu.l1d.prefetcher: Updated AGT entry with:          0
19544000: system.cpu.l1d.prefetcher: Updated AGT entry with:          0
19647000: system.cpu.l1d.prefetcher: Updated AGT entry with:          0
19648000: system.cpu.l1d.prefetcher: Updated AGT entry with:          0
19751000: system.cpu.l1d.prefetcher: Updated AGT entry with:          0
19752000: system.cpu.l1d.prefetcher: Updated AGT entry with:          0
19855000: system.cpu.l1d.prefetcher: Updated AGT entry with:          0
19856000: system.cpu.l1d.prefetcher: INSERTENTRY(): spatio_region:      0X17F, pc:   0x41e02d, physical addr:    0xbfd40
19856000: system.cpu.l1d.prefetcher: Created FT entry with:   0x41e02d
19856000: system.cpu.l1d.prefetcher: CONGRATS: SUCCESS in inserting new FT entry found!!
19959000: system.cpu.l1d.prefetcher: INSERTENTRY(): spatio_region:      0X17F, pc:   0x41e02d, physical addr:    0xbfd88
19959000: system.cpu.l1d.prefetcher: Created FT entry with:   0x41e02d
19959000: system.cpu.l1d.prefetcher: CONGRATS: SUCCESS in inserting new FT entry found!!
19960000: system.cpu.l1d.prefetcher: INSERTENTRY(): spatio_region:      0X17F, pc:   0x41e02d, physical addr:    0xbfd80
19960000: system.cpu.l1d.prefetcher: Created FT entry with:   0x41e02d
19960000: system.cpu.l1d.prefetcher: CONGRATS: SUCCESS in inserting new FT entry found!!
20063000: system.cpu.l1d.prefetcher: INSERTENTRY(): spatio_region:      0X17F, pc:   0x41e02d, physical addr:    0xbfdc8
20063000: system.cpu.l1d.prefetcher: Created FT entry with:   0x41e02d
20063000: system.cpu.l1d.prefetcher: CONGRATS: SUCCESS in inserting new FT entry found!!
20064000: system.cpu.l1d.prefetcher: INSERTENTRY(): spatio_region:      0X17F, pc:   0x41e02d, physical addr:    0xbfdc0
20064000: system.cpu.l1d.prefetcher: Created FT entry with:   0x41e02d
20064000: system.cpu.l1d.prefetcher: CONGRATS: SUCCESS in inserting new FT entry found!!
20167000: system.cpu.l1d.prefetcher: INSERTENTRY(): spatio_region:      0X17F, pc:   0x41e02d, physical addr:    0xbfe08
20167000: system.cpu.l1d.prefetcher: Created FT entry with:   0x41e02d
20167000: system.cpu.l1d.prefetcher: CONGRATS: SUCCESS in inserting new FT entry found!!
20168000: system.cpu.l1d.prefetcher: INSERTENTRY(): spatio_region:      0X17F, pc:   0x41e02d, physical addr:    0xbfe00
20168000: system.cpu.l1d.prefetcher: Created FT entry with:   0x41e02d
20168000: system.cpu.l1d.prefetcher: CONGRATS: SUCCESS in inserting new FT entry found!!
20271000: system.cpu.l1d.prefetcher: INSERTENTRY(): spatio_region:      0X17F, pc:   0x41e02d, physical addr:    0xbfe48
20271000: system.cpu.l1d.prefetcher: Created FT entry with:   0x41e02d
20271000: system.cpu.l1d.prefetcher: CONGRATS: SUCCESS in inserting new FT entry found!!
20272000: system.cpu.l1d.prefetcher: INSERTENTRY(): spatio_region:      0X17F, pc:   0x41e02d, physical addr:    0xbfe40
20272000: system.cpu.l1d.prefetcher: Created FT entry with:   0x41e02d
20272000: system.cpu.l1d.prefetcher: CONGRATS: SUCCESS in inserting new FT entry found!!
20375000: system.cpu.l1d.prefetcher: INSERTENTRY(): spatio_region:      0X17F, pc:   0x41e02d, physical addr:    0xbfe88
20375000: system.cpu.l1d.prefetcher: Created FT entry with:   0x41e02d
20375000: system.cpu.l1d.prefetcher: CONGRATS: SUCCESS in inserting new FT entry found!!
20376000: system.cpu.l1d.prefetcher: INSERTENTRY(): spatio_region:      0X17F, pc:   0x41e02d, physical addr:    0xbfe80
20376000: system.cpu.l1d.prefetcher: Created FT entry with:   0x41e02d
20376000: system.cpu.l1d.prefetcher: CONGRATS: SUCCESS in inserting new FT entry found!!
20479000: system.cpu.l1d.prefetcher: INSERTENTRY(): spatio_region:      0X17F, pc:   0x41e02d, physical addr:    0xbfec8
20479000: system.cpu.l1d.prefetcher: Created FT entry with:   0x41e02d
20479000: system.cpu.l1d.prefetcher: CONGRATS: SUCCESS in inserting new FT entry found!!
20480000: system.cpu.l1d.prefetcher: INSERTENTRY(): spatio_region:      0X17F, pc:   0x41e02d, physical addr:    0xbfec0
20480000: system.cpu.l1d.prefetcher: Created FT entry with:   0x41e02d
20480000: system.cpu.l1d.prefetcher: CONGRATS: SUCCESS in inserting new FT entry found!!
20583000: system.cpu.l1d.prefetcher: INSERTENTRY(): spatio_region:      0X17F, pc:   0x41e02d, physical addr:    0xbff08
20583000: system.cpu.l1d.prefetcher: Created FT entry with:   0x41e02d
20583000: system.cpu.l1d.prefetcher: CONGRATS: SUCCESS in inserting new FT entry found!!
20584000: system.cpu.l1d.prefetcher: INSERTENTRY(): spatio_region:      0X17F, pc:   0x41e02d, physical addr:    0xbff00
20584000: system.cpu.l1d.prefetcher: Created FT entry with:   0x41e02d
20584000: system.cpu.l1d.prefetcher: CONGRATS: SUCCESS in inserting new FT entry found!!
20687000: system.cpu.l1d.prefetcher: INSERTENTRY(): spatio_region:      0X17F, pc:   0x41e02d, physical addr:    0xbff48
20687000: system.cpu.l1d.prefetcher: Created FT entry with:   0x41e02d
20687000: system.cpu.l1d.prefetcher: CONGRATS: SUCCESS in inserting new FT entry found!!
20688000: system.cpu.l1d.prefetcher: INSERTENTRY(): spatio_region:      0X17F, pc:   0x41e02d, physical addr:    0xbff40
20688000: system.cpu.l1d.prefetcher: Created FT entry with:   0x41e02d
20688000: system.cpu.l1d.prefetcher: CONGRATS: SUCCESS in inserting new FT entry found!!
20791000: system.cpu.l1d.prefetcher: INSERTENTRY(): spatio_region:      0X17F, pc:   0x41e02d, physical addr:    0xbff88
20791000: system.cpu.l1d.prefetcher: Created FT entry with:   0x41e02d
20791000: system.cpu.l1d.prefetcher: CONGRATS: SUCCESS in inserting new FT entry found!!
20792000: system.cpu.l1d.prefetcher: INSERTENTRY(): spatio_region:      0X17F, pc:   0x41e02d, physical addr:    0xbff80
20792000: system.cpu.l1d.prefetcher: Created FT entry with:   0x41e02d
[...]
59046000: system.cpu.l1i.prefetcher: INSERTENTRY(): spatio_region:       0X97, pc:   0x44bd40, physical addr:    0x4bd40
59046000: system.cpu.l1i.prefetcher: Created FT entry with:   0x44bd40
59046000: system.cpu.l1i.prefetcher: CONGRATS: SUCCESS in inserting new FT entry found!!
59128000: system.cpu.l1i.prefetcher: INSERTENTRY(): spatio_region:       0X97, pc:   0x44bd80, physical addr:    0x4bd80
59128000: system.cpu.l1i.prefetcher: Created FT entry with:   0x44bd80
59128000: system.cpu.l1i.prefetcher: CONGRATS: SUCCESS in inserting new FT entry found!!
59204000: system.cpu.l1i.prefetcher: INSERTENTRY(): spatio_region:       0X1E, pc:   0x40f3f0, physical addr:     0xf3c0
59204000: system.cpu.l1i.prefetcher: Created FT entry with:   0x40f3f0
59204000: system.cpu.l1i.prefetcher: CONGRATS: SUCCESS in inserting new FT entry found!!
59295000: system.cpu.l1i.prefetcher: INSERTENTRY(): spatio_region:       0X1E, pc:   0x40f400, physical addr:     0xf400
59295000: system.cpu.l1i.prefetcher: Created FT entry with:   0x40f400
59295000: system.cpu.l1i.prefetcher: CONGRATS: SUCCESS in inserting new FT entry found!!
59361000: system.cpu.l1i.prefetcher: INSERTENTRY(): spatio_region:       0XB8, pc:   0x45c140, physical addr:    0x5c140
59361000: system.cpu.l1i.prefetcher: Created FT entry with:   0x45c140
59361000: system.cpu.l1i.prefetcher: CONGRATS: SUCCESS in inserting new FT entry found!!
59425000: system.cpu.l1i.prefetcher: INSERTENTRY(): spatio_region:       0XB8, pc:   0x45c180, physical addr:    0x5c180
59425000: system.cpu.l1i.prefetcher: Created FT entry with:   0x45c180
59425000: system.cpu.l1i.prefetcher: CONGRATS: SUCCESS in inserting new FT entry found!!
59429000: system.cpu.l1d.prefetcher: INSERTENTRY(): spatio_region:      0X187, pc:   0x45c13d, physical addr:    0xc3dc0
59429000: system.cpu.l1d.prefetcher: Created FT entry with:   0x45c13d
59429000: system.cpu.l1d.prefetcher: CONGRATS: SUCCESS in inserting new FT entry found!!
59435000: system.cpu.l1d.prefetcher: INSERTENTRY(): spatio_region:      0X187, pc:   0x45c153, physical addr:    0xc3dc8
59435000: system.cpu.l1d.prefetcher: Created FT entry with:   0x45c153
59435000: system.cpu.l1d.prefetcher: CONGRATS: SUCCESS in inserting new FT entry found!!
59493000: system.cpu.l1i.prefetcher: INSERTENTRY(): spatio_region:       0XB8, pc:   0x45c1c0, physical addr:    0x5c1c0
59493000: system.cpu.l1i.prefetcher: Created FT entry with:   0x45c1c0
59493000: system.cpu.l1i.prefetcher: CONGRATS: SUCCESS in inserting new FT entry found!!
59564000: system.cpu.l1d.prefetcher: Updated AGT entry with:          0
59641000: system.cpu.l1d.prefetcher: Updated AGT entry with:          0
59717000: system.cpu.l1i.prefetcher: INSERTENTRY(): spatio_region:        0X4, pc:   0x402600, physical addr:     0x2600
59717000: system.cpu.l1i.prefetcher: Created FT entry with:   0x402600
59717000: system.cpu.l1i.prefetcher: CONGRATS: SUCCESS in inserting new FT entry found!!
59808000: system.cpu.l1i.prefetcher: INSERTENTRY(): spatio_region:        0X2, pc:   0x401730, physical addr:     0x1700
59808000: system.cpu.l1i.prefetcher: Created FT entry with:   0x401730
59808000: system.cpu.l1i.prefetcher: CONGRATS: SUCCESS in inserting new FT entry found!!
59888000: system.cpu.l1i.prefetcher: INSERTENTRY(): spatio_region:        0X3, pc:   0x401d80, physical addr:     0x1d80
59888000: system.cpu.l1i.prefetcher: Created FT entry with:   0x401d80
59888000: system.cpu.l1i.prefetcher: CONGRATS: SUCCESS in inserting new FT entry found!!
59903000: system.cpu.l1i.prefetcher: INSERTENTRY(): spatio_region:        0X3, pc:   0x401dc0, physical addr:     0x1dc0
59903000: system.cpu.l1i.prefetcher: Created FT entry with:   0x401dc0
59903000: system.cpu.l1i.prefetcher: CONGRATS: SUCCESS in inserting new FT entry found!!
166742000: system.cpu.l1i.prefetcher: INSERTENTRY(): spatio_region:       0X1F, pc:   0x40fec0, physical addr:     0xfec0
166742000: system.cpu.l1i.prefetcher: Created FT entry with:   0x40fec0
166742000: system.cpu.l1i.prefetcher: CONGRATS: SUCCESS in inserting new FT entry found!!
166762000: system.cpu.l1d.prefetcher: INSERTENTRY(): spatio_region:      0X17D, pc:   0x40fe6a, physical addr:    0xbefd8
166762000: system.cpu.l1d.prefetcher: Created FT entry with:   0x40fe6a
166762000: system.cpu.l1d.prefetcher: CONGRATS: SUCCESS in inserting new FT entry found!!
166819000: system.cpu.l1i.prefetcher: INSERTENTRY(): spatio_region:       0X1F, pc:   0x40ff00, physical addr:     0xff00
166819000: system.cpu.l1i.prefetcher: Created FT entry with:   0x40ff00
166819000: system.cpu.l1i.prefetcher: CONGRATS: SUCCESS in inserting new FT entry found!!
166895000: system.cpu.l1i.prefetcher: INSERTENTRY(): spatio_region:       0X1F, pc:   0x40ff40, physical addr:     0xff40
166895000: system.cpu.l1i.prefetcher: Created FT entry with:   0x40ff40
166895000: system.cpu.l1i.prefetcher: CONGRATS: SUCCESS in inserting new FT entry found!!
166967000: system.cpu.l1i.prefetcher: INSERTENTRY(): spatio_region:       0X1F, pc:   0x40ff80, physical addr:     0xff80
166967000: system.cpu.l1i.prefetcher: Created FT entry with:   0x40ff80
166967000: system.cpu.l1i.prefetcher: CONGRATS: SUCCESS in inserting new FT entry found!!
167046000: system.cpu.l1i.prefetcher: INSERTENTRY(): spatio_region:        0X5, pc:   0x402e80, physical addr:     0x2e80
167046000: system.cpu.l1i.prefetcher: Created FT entry with:   0x402e80
167046000: system.cpu.l1i.prefetcher: CONGRATS: SUCCESS in inserting new FT entry found!!
167123000: system.cpu.l1i.prefetcher: INSERTENTRY(): spatio_region:        0X2, pc:   0x4016e0, physical addr:     0x16c0
167123000: system.cpu.l1i.prefetcher: Created FT entry with:   0x4016e0
167123000: system.cpu.l1i.prefetcher: CONGRATS: SUCCESS in inserting new FT entry found!!
167205000: system.cpu.l1d.prefetcher: Updated AGT entry with:          0
167358000: system.cpu.l1i.prefetcher: INSERTENTRY(): spatio_region:        0X3, pc:   0x401c20, physical addr:     0x1c00
167358000: system.cpu.l1i.prefetcher: Created FT entry with:   0x401c20
167358000: system.cpu.l1i.prefetcher: CONGRATS: SUCCESS in inserting new FT entry found!!
167412000: system.cpu.l1i.prefetcher: INSERTENTRY(): spatio_region:      0X124, pc:   0x4920b0, physical addr:    0x92080
167412000: system.cpu.l1i.prefetcher: Created FT entry with:   0x4920b0
167412000: system.cpu.l1i.prefetcher: CONGRATS: SUCCESS in inserting new FT entry found!!
167489000: system.cpu.l1i.prefetcher: INSERTENTRY(): spatio_region:      0X124, pc:   0x4920c0, physical addr:    0x920c0
167489000: system.cpu.l1i.prefetcher: Created FT entry with:   0x4920c0
167489000: system.cpu.l1i.prefetcher: CONGRATS: SUCCESS in inserting new FT entry found!!
167553000: system.cpu.l1i.prefetcher: INSERTENTRY(): spatio_region:      0X123, pc:   0x491f80, physical addr:    0x91f80
167553000: system.cpu.l1i.prefetcher: Created FT entry with:   0x491f80
167553000: system.cpu.l1i.prefetcher: CONGRATS: SUCCESS in inserting new FT entry found!!
167630000: system.cpu.l1i.prefetcher: INSERTENTRY(): spatio_region:      0X123, pc:   0x491fc0, physical addr:    0x91fc0
167630000: system.cpu.l1i.prefetcher: Created FT entry with:   0x491fc0
167630000: system.cpu.l1i.prefetcher: CONGRATS: SUCCESS in inserting new FT entry found!!
167698000: system.cpu.l1i.prefetcher: INSERTENTRY(): spatio_region:      0X124, pc:   0x492000, physical addr:    0x92000
167698000: system.cpu.l1i.prefetcher: Created FT entry with:   0x492000
167698000: system.cpu.l1i.prefetcher: CONGRATS: SUCCESS in inserting new FT entry found!!
167766000: system.cpu.l1i.prefetcher: INSERTENTRY(): spatio_region:      0X124, pc:   0x492040, physical addr:    0x92040
167766000: system.cpu.l1i.prefetcher: Created FT entry with:   0x492040
167766000: system.cpu.l1i.prefetcher: CONGRATS: SUCCESS in inserting new FT entry found!!
167885000: system.cpu.l1i.prefetcher: INSERTENTRY(): spatio_region:        0X5, pc:   0x402ec0, physical addr:     0x2ec0
167885000: system.cpu.l1i.prefetcher: Created FT entry with:   0x402ec0
167885000: system.cpu.l1i.prefetcher: CONGRATS: SUCCESS in inserting new FT entry found!!
167949000: system.cpu.l1i.prefetcher: INSERTENTRY(): spatio_region:      0X128, pc:   0x494550, physical addr:    0x94540
167949000: system.cpu.l1i.prefetcher: Created FT entry with:   0x494550
167949000: system.cpu.l1i.prefetcher: CONGRATS: SUCCESS in inserting new FT entry found!!
168026000: system.cpu.l1i.prefetcher: INSERTENTRY(): spatio_region:      0X128, pc:   0x494580, physical addr:    0x94580
168026000: system.cpu.l1i.prefetcher: Created FT entry with:   0x494580
168026000: system.cpu.l1i.prefetcher: CONGRATS: SUCCESS in inserting new FT entry found!!
168094000: system.cpu.l1i.prefetcher: INSERTENTRY(): spatio_region:       0X1F, pc:   0x40ffc0, physical addr:     0xffc0
168094000: system.cpu.l1i.prefetcher: Created FT entry with:   0x40ffc0
168094000: system.cpu.l1i.prefetcher: CONGRATS: SUCCESS in inserting new FT entry found!!
168188000: system.cpu.l1i.prefetcher: INSERTENTRY(): spatio_region:       0X20, pc:   0x410000, physical addr:    0x10000
168188000: system.cpu.l1i.prefetcher: Created FT entry with:   0x410000
168188000: system.cpu.l1i.prefetcher: CONGRATS: SUCCESS in inserting new FT entry found!!
168281000: system.cpu.l1i.prefetcher: INSERTENTRY(): spatio_region:       0X20, pc:   0x410040, physical addr:    0x10040
168281000: system.cpu.l1i.prefetcher: Created FT entry with:   0x410040
168281000: system.cpu.l1i.prefetcher: CONGRATS: SUCCESS in inserting new FT entry found!!
168372000: system.cpu.l1i.prefetcher: INSERTENTRY(): spatio_region:       0X20, pc:   0x410080, physical addr:    0x10080
168372000: system.cpu.l1i.prefetcher: Created FT entry with:   0x410080
168372000: system.cpu.l1i.prefetcher: CONGRATS: SUCCESS in inserting new FT entry found!!
168396000: system.cpu.l1d.prefetcher: Updated AGT entry with:          0
168436000: system.cpu.l1i.prefetcher: INSERTENTRY(): spatio_region:       0X20, pc:   0x4100c0, physical addr:    0x100c0
168436000: system.cpu.l1i.prefetcher: Created FT entry with:   0x4100c0
168436000: system.cpu.l1i.prefetcher: CONGRATS: SUCCESS in inserting new FT entry found!!
168500000: system.cpu.l1i.prefetcher: INSERTENTRY(): spatio_region:       0X31, pc:   0x418860, physical addr:    0x18840
168500000: system.cpu.l1i.prefetcher: Created FT entry with:   0x418860
168500000: system.cpu.l1i.prefetcher: CONGRATS: SUCCESS in inserting new FT entry found!!
168577000: system.cpu.l1i.prefetcher: INSERTENTRY(): spatio_region:       0X31, pc:   0x418880, physical addr:    0x18880
168577000: system.cpu.l1i.prefetcher: Created FT entry with:   0x418880
168577000: system.cpu.l1i.prefetcher: CONGRATS: SUCCESS in inserting new FT entry found!!
168641000: system.cpu.l1i.prefetcher: INSERTENTRY(): spatio_region:       0X31, pc:   0x4188c0, physical addr:    0x188c0
168641000: system.cpu.l1i.prefetcher: Created FT entry with:   0x4188c0
168641000: system.cpu.l1i.prefetcher: CONGRATS: SUCCESS in inserting new FT entry found!!
168705000: system.cpu.l1i.prefetcher: INSERTENTRY(): spatio_region:       0X30, pc:   0x418560, physical addr:    0x18540
168705000: system.cpu.l1i.prefetcher: Created FT entry with:   0x418560
168705000: system.cpu.l1i.prefetcher: CONGRATS: SUCCESS in inserting new FT entry found!!
168769000: system.cpu.l1i.prefetcher: INSERTENTRY(): spatio_region:       0X30, pc:   0x418580, physical addr:    0x18580
168769000: system.cpu.l1i.prefetcher: Created FT entry with:   0x418580
168769000: system.cpu.l1i.prefetcher: CONGRATS: SUCCESS in inserting new FT entry found!!
168833000: system.cpu.l1i.prefetcher: INSERTENTRY(): spatio_region:       0X30, pc:   0x4185c0, physical addr:    0x185c0
168833000: system.cpu.l1i.prefetcher: Created FT entry with:   0x4185c0
168833000: system.cpu.l1i.prefetcher: CONGRATS: SUCCESS in inserting new FT entry found!!
168897000: system.cpu.l1i.prefetcher: INSERTENTRY(): spatio_region:       0X30, pc:   0x418790, physical addr:    0x18780
168897000: system.cpu.l1i.prefetcher: Created FT entry with:   0x418790
168897000: system.cpu.l1i.prefetcher: CONGRATS: SUCCESS in inserting new FT entry found!!
168961000: system.cpu.l1i.prefetcher: INSERTENTRY(): spatio_region:       0X30, pc:   0x4187c0, physical addr:    0x187c0
168961000: system.cpu.l1i.prefetcher: Created FT entry with:   0x4187c0
168961000: system.cpu.l1i.prefetcher: CONGRATS: SUCCESS in inserting new FT entry found!!
169029000: system.cpu.l1i.prefetcher: INSERTENTRY(): spatio_region:       0X30, pc:   0x418600, physical addr:    0x18600
169029000: system.cpu.l1i.prefetcher: Created FT entry with:   0x418600
169029000: system.cpu.l1i.prefetcher: CONGRATS: SUCCESS in inserting new FT entry found!!
169033000: system.cpu.l1d.prefetcher: INSERTENTRY(): spatio_region:      0X183, pc:   0x4185ae, physical addr:    0xc1c58
169033000: system.cpu.l1d.prefetcher: Created FT entry with:   0x4185ae
169033000: system.cpu.l1d.prefetcher: CONGRATS: SUCCESS in inserting new FT entry found!!
169093000: system.cpu.l1i.prefetcher: INSERTENTRY(): spatio_region:       0X30, pc:   0x418640, physical addr:    0x18640
169093000: system.cpu.l1i.prefetcher: Created FT entry with:   0x418640
169093000: system.cpu.l1i.prefetcher: CONGRATS: SUCCESS in inserting new FT entry found!!
169127000: system.cpu.l1d.prefetcher: Updated AGT entry with:          0
169157000: system.cpu.l1i.prefetcher: INSERTENTRY(): spatio_region:       0X30, pc:   0x4186b4, physical addr:    0x18680
169157000: system.cpu.l1i.prefetcher: Created FT entry with:   0x4186b4
169157000: system.cpu.l1i.prefetcher: CONGRATS: SUCCESS in inserting new FT entry found!!
169221000: system.cpu.l1i.prefetcher: INSERTENTRY(): spatio_region:       0X30, pc:   0x4186c0, physical addr:    0x186c0
169221000: system.cpu.l1i.prefetcher: Created FT entry with:   0x4186c0
169221000: system.cpu.l1i.prefetcher: CONGRATS: SUCCESS in inserting new FT entry found!!
169287000: system.cpu.l1i.prefetcher: INSERTENTRY(): spatio_region:       0X30, pc:   0x418700, physical addr:    0x18700
169287000: system.cpu.l1i.prefetcher: Created FT entry with:   0x418700
169287000: system.cpu.l1i.prefetcher: CONGRATS: SUCCESS in inserting new FT entry found!!
169351000: system.cpu.l1i.prefetcher: INSERTENTRY(): spatio_region:       0X30, pc:   0x418740, physical addr:    0x18740
169351000: system.cpu.l1i.prefetcher: Created FT entry with:   0x418740
169351000: system.cpu.l1i.prefetcher: CONGRATS: SUCCESS in inserting new FT entry found!!
169354000: system.cpu.l1d.prefetcher: Updated AGT entry with:          0
169417000: system.cpu.l1d.prefetcher: Updated AGT entry with:          0
169418000: system.cpu.l1d.prefetcher: Updated AGT entry with:          0
169510000: system.cpu.l1d.prefetcher: Updated AGT entry with:          0
169576000: system.cpu.l1d.prefetcher: Updated AGT entry with:          0
169639000: system.cpu.l1d.prefetcher: Updated AGT entry with:          0
169702000: system.cpu.l1d.prefetcher: Updated AGT entry with:          0
169703000: system.cpu.l1d.prefetcher: Updated AGT entry with:          0
169794000: system.cpu.l1d.prefetcher: Updated AGT entry with:          0
169860000: system.cpu.l1d.prefetcher: Updated AGT entry with:          0
169923000: system.cpu.l1d.prefetcher: Updated AGT entry with:          0
170018000: system.cpu.l1d.prefetcher: INSERTENTRY(): spatio_region:      0X17E, pc:   0x4186ab, physical addr:    0xbf568
170018000: system.cpu.l1d.prefetcher: Created FT entry with:   0x4186ab
170018000: system.cpu.l1d.prefetcher: CONGRATS: SUCCESS in inserting new FT entry found!!
170116000: system.cpu.l1i.prefetcher: INSERTENTRY(): spatio_region:       0X31, pc:   0x418800, physical addr:    0x18800
170116000: system.cpu.l1i.prefetcher: Created FT entry with:   0x418800
170116000: system.cpu.l1i.prefetcher: CONGRATS: SUCCESS in inserting new FT entry found!!
170219000: system.cpu.l1i.prefetcher: INSERTENTRY(): spatio_region:       0X31, pc:   0x418900, physical addr:    0x18900
170219000: system.cpu.l1i.prefetcher: Created FT entry with:   0x418900
170219000: system.cpu.l1i.prefetcher: CONGRATS: SUCCESS in inserting new FT entry found!!
170283000: system.cpu.l1i.prefetcher: INSERTENTRY(): spatio_region:       0X31, pc:   0x418ad8, physical addr:    0x18ac0
170283000: system.cpu.l1i.prefetcher: Created FT entry with:   0x418ad8
170283000: system.cpu.l1i.prefetcher: CONGRATS: SUCCESS in inserting new FT entry found!!
170360000: system.cpu.l1i.prefetcher: INSERTENTRY(): spatio_region:       0X31, pc:   0x418b00, physical addr:    0x18b00
170360000: system.cpu.l1i.prefetcher: Created FT entry with:   0x418b00
170360000: system.cpu.l1i.prefetcher: CONGRATS: SUCCESS in inserting new FT entry found!!
170430000: system.cpu.l1i.prefetcher: INSERTENTRY(): spatio_region:       0X31, pc:   0x418940, physical addr:    0x18940
170430000: system.cpu.l1i.prefetcher: Created FT entry with:   0x418940
170430000: system.cpu.l1i.prefetcher: CONGRATS: SUCCESS in inserting new FT entry found!!
170498000: system.cpu.l1i.prefetcher: INSERTENTRY(): spatio_region:       0X31, pc:   0x418980, physical addr:    0x18980
170498000: system.cpu.l1i.prefetcher: Created FT entry with:   0x418980
170498000: system.cpu.l1i.prefetcher: CONGRATS: SUCCESS in inserting new FT entry found!!
170572000: system.cpu.l1i.prefetcher: INSERTENTRY(): spatio_region:       0X31, pc:   0x4189c0, physical addr:    0x189c0
170572000: system.cpu.l1i.prefetcher: Created FT entry with:   0x4189c0
170572000: system.cpu.l1i.prefetcher: CONGRATS: SUCCESS in inserting new FT entry found!!
170654000: system.cpu.l1d.prefetcher: INSERTENTRY(): spatio_region:      0X17E, pc:   0x418938, physical addr:    0xbf588
170654000: system.cpu.l1d.prefetcher: Created FT entry with:   0x418938
170654000: system.cpu.l1d.prefetcher: CONGRATS: SUCCESS in inserting new FT entry found!!
170727000: system.cpu.l1i.prefetcher: INSERTENTRY(): spatio_region:       0X31, pc:   0x418a30, physical addr:    0x18a00
170727000: system.cpu.l1i.prefetcher: Created FT entry with:   0x418a30
170727000: system.cpu.l1i.prefetcher: CONGRATS: SUCCESS in inserting new FT entry found!!
170791000: system.cpu.l1i.prefetcher: INSERTENTRY(): spatio_region:       0X31, pc:   0x418a40, physical addr:    0x18a40
170791000: system.cpu.l1i.prefetcher: Created FT entry with:   0x418a40
170791000: system.cpu.l1i.prefetcher: CONGRATS: SUCCESS in inserting new FT entry found!!
170855000: system.cpu.l1i.prefetcher: INSERTENTRY(): spatio_region:       0X31, pc:   0x418a80, physical addr:    0x18a80
170855000: system.cpu.l1i.prefetcher: Created FT entry with:   0x418a80
170855000: system.cpu.l1i.prefetcher: CONGRATS: SUCCESS in inserting new FT entry found!!
170938000: system.cpu.l1i.prefetcher: INSERTENTRY(): spatio_region:       0X31, pc:   0x418b40, physical addr:    0x18b40
170938000: system.cpu.l1i.prefetcher: Created FT entry with:   0x418b40
170938000: system.cpu.l1i.prefetcher: CONGRATS: SUCCESS in inserting new FT entry found!!
171018000: system.cpu.l1i.prefetcher: INSERTENTRY(): spatio_region:       0X8F, pc:   0x447e00, physical addr:    0x47e00
171018000: system.cpu.l1i.prefetcher: Created FT entry with:   0x447e00
171018000: system.cpu.l1i.prefetcher: CONGRATS: SUCCESS in inserting new FT entry found!!
171095000: system.cpu.l1i.prefetcher: INSERTENTRY(): spatio_region:       0X8F, pc:   0x447e40, physical addr:    0x47e40
171095000: system.cpu.l1i.prefetcher: Created FT entry with:   0x447e40
171095000: system.cpu.l1i.prefetcher: CONGRATS: SUCCESS in inserting new FT entry found!!
171163000: system.cpu.l1i.prefetcher: INSERTENTRY(): spatio_region:       0X8F, pc:   0x447e80, physical addr:    0x47e80
171163000: system.cpu.l1i.prefetcher: Created FT entry with:   0x447e80
171163000: system.cpu.l1i.prefetcher: CONGRATS: SUCCESS in inserting new FT entry found!!
Exit Eventexiting with last active thread context
Dump stats at the end of the ROI!
