gem5 Simulator System.  http://gem5.org
gem5 is copyrighted software; use the --copyright option for details.

gem5 version 20.1.0.2
gem5 compiled Dec  7 2021 03:10:33
gem5 started Dec  7 2021 03:12:45
gem5 executing on ARCH-750, pid 857927
command line: /data/home/ycc32/450_project/gem5/build/X86/gem5.opt --debug-flags=HWPrefetch -re --outdir=/data/home/ycc32/450_project/gem5/results/X86/run_micro/CCa/Minor4/Slow/DDR3_2133_8x8/1GHz gem5-config/run_micro.py Minor4 Slow microbenchmark/CCa/bench.X86 DDR3_2133_8x8 --clock=1GHz

1GHz CPU speed and DRAM = DDR3_2133_8x8
system.py: init L2 cache with size 1MB
Global frequency set at 1000000000000 ticks per second
   1000: system.cpu.l1i.prefetcher: PC:   0X401BE0
   1000: system.cpu.l1i.prefetcher: Spatial Region address:        0X3
   1000: system.cpu.l1i.prefetcher: Spatial Region physical address:     0X1BC0
   1000: system.cpu.l1i.prefetcher: Spatial Region offset:        0XF
   1000: system.cpu.l1i.prefetcher: PST address added: 0X200DF000F
  79000: system.cpu.l1i.prefetcher: PC:   0X401C00
  79000: system.cpu.l1i.prefetcher: Spatial Region address:        0X3
  79000: system.cpu.l1i.prefetcher: Spatial Region physical address:     0X1C00
  79000: system.cpu.l1i.prefetcher: Spatial Region offset:       0X10
  79000: system.cpu.l1i.prefetcher: PST address added: 0X200E00010
  82000: system.cpu.l1d.prefetcher: PC:   0X401BE9
  82000: system.cpu.l1d.prefetcher: Spatial Region address:      0X187
  82000: system.cpu.l1d.prefetcher: Spatial Region physical address:    0XC3E40
  82000: system.cpu.l1d.prefetcher: Spatial Region offset:       0X19
  82000: system.cpu.l1d.prefetcher: PST address added: 0X200DF4819
 143000: system.cpu.l1i.prefetcher: PC:   0X401C40
 143000: system.cpu.l1i.prefetcher: Spatial Region address:        0X3
 143000: system.cpu.l1i.prefetcher: Spatial Region physical address:     0X1C40
 143000: system.cpu.l1i.prefetcher: Spatial Region offset:       0X11
 143000: system.cpu.l1i.prefetcher: PST address added: 0X200E20011
 161000: system.cpu.l1d.prefetcher: PC:   0X401BF1
 161000: system.cpu.l1d.prefetcher: Spatial Region address:      0X187
 161000: system.cpu.l1d.prefetcher: Spatial Region physical address:    0XC3E38
 161000: system.cpu.l1d.prefetcher: Spatial Region offset:       0X18
 161000: system.cpu.l1d.prefetcher: PST address added: 0X200DF8818
 162000: system.cpu.l1d.prefetcher: PC:   0X401BF2
 162000: system.cpu.l1d.prefetcher: Spatial Region address:      0X187
 162000: system.cpu.l1d.prefetcher: Spatial Region physical address:    0XC3E30
 162000: system.cpu.l1d.prefetcher: Spatial Region offset:       0X18
 162000: system.cpu.l1d.prefetcher: PST address added: 0X200DF9018
 207000: system.cpu.l1i.prefetcher: PC:   0X4020D0
 207000: system.cpu.l1i.prefetcher: Spatial Region address:        0X4
 207000: system.cpu.l1i.prefetcher: Spatial Region physical address:     0X20C0
 207000: system.cpu.l1i.prefetcher: Spatial Region offset:        0X3
 207000: system.cpu.l1i.prefetcher: PST address added: 0X201068003
 298000: system.cpu.l1i.prefetcher: PC:   0X402100
 298000: system.cpu.l1i.prefetcher: Spatial Region address:        0X4
 298000: system.cpu.l1i.prefetcher: Spatial Region physical address:     0X2100
 298000: system.cpu.l1i.prefetcher: Spatial Region offset:        0X4
 298000: system.cpu.l1i.prefetcher: PST address added: 0X201080004
 318000: system.cpu.l1d.prefetcher: PC:   0X4020EE
 318000: system.cpu.l1d.prefetcher: Spatial Region address:      0X187
 318000: system.cpu.l1d.prefetcher: Spatial Region physical address:    0XC3D30
 318000: system.cpu.l1d.prefetcher: Spatial Region offset:       0X14
 318000: system.cpu.l1d.prefetcher: PST address added: 0X201077014
 321000: system.cpu.l1d.prefetcher: PC:   0X4020FA
 321000: system.cpu.l1d.prefetcher: Spatial Region address:      0X187
 321000: system.cpu.l1d.prefetcher: Spatial Region physical address:    0XC3D38
 321000: system.cpu.l1d.prefetcher: Spatial Region offset:       0X14
 321000: system.cpu.l1d.prefetcher: PST address added: 0X20107D014
 362000: system.cpu.l1i.prefetcher: PC:   0X402140
 362000: system.cpu.l1i.prefetcher: Spatial Region address:        0X4
 362000: system.cpu.l1i.prefetcher: Spatial Region physical address:     0X2140
 362000: system.cpu.l1i.prefetcher: Spatial Region offset:        0X5
 362000: system.cpu.l1i.prefetcher: PST address added: 0X2010A0005
 459000: system.cpu.l1i.prefetcher: PC:   0X402180
 459000: system.cpu.l1i.prefetcher: Spatial Region address:        0X4
 459000: system.cpu.l1i.prefetcher: Spatial Region physical address:     0X2180
 459000: system.cpu.l1i.prefetcher: Spatial Region offset:        0X6
 459000: system.cpu.l1i.prefetcher: PST address added: 0X2010C0006
 463000: system.cpu.l1d.prefetcher: PC:   0X402111
 463000: system.cpu.l1d.prefetcher: Spatial Region address:      0X180
 463000: system.cpu.l1d.prefetcher: Spatial Region physical address:    0XC06C8
 463000: system.cpu.l1d.prefetcher: Spatial Region offset:       0X1B
 463000: system.cpu.l1d.prefetcher: PST address added: 0X20108881B
 528000: system.cpu.l1i.prefetcher: PC:   0X401C80
 528000: system.cpu.l1i.prefetcher: Spatial Region address:        0X3
 528000: system.cpu.l1i.prefetcher: Spatial Region physical address:     0X1C80
 528000: system.cpu.l1i.prefetcher: Spatial Region offset:       0X12
 528000: system.cpu.l1i.prefetcher: PST address added: 0X200E40012
 626000: system.cpu.l1i.prefetcher: PC:   0X4021C0
 626000: system.cpu.l1i.prefetcher: Spatial Region address:        0X4
 626000: system.cpu.l1i.prefetcher: Spatial Region physical address:     0X21C0
 626000: system.cpu.l1i.prefetcher: Spatial Region offset:        0X7
 626000: system.cpu.l1i.prefetcher: PST address added: 0X2010E0007
 630000: system.cpu.l1d.prefetcher: PC:   0X402133
 630000: system.cpu.l1d.prefetcher: Spatial Region address:      0X183
 630000: system.cpu.l1d.prefetcher: Spatial Region physical address:    0XC1CE8
 630000: system.cpu.l1d.prefetcher: Spatial Region offset:       0X13
 630000: system.cpu.l1d.prefetcher: PST address added: 0X201099813
 633000: system.cpu.l1d.prefetcher: PC:   0X40213A
 633000: system.cpu.l1d.prefetcher: Spatial Region address:      0X17D
 633000: system.cpu.l1d.prefetcher: Spatial Region physical address:    0XBEA70
 633000: system.cpu.l1d.prefetcher: Spatial Region offset:        0X9
 633000: system.cpu.l1d.prefetcher: PST address added: 0X20109D009
 690000: system.cpu.l1i.prefetcher: PC:   0X402200
 690000: system.cpu.l1i.prefetcher: Spatial Region address:        0X4
 690000: system.cpu.l1i.prefetcher: Spatial Region physical address:     0X2200
 690000: system.cpu.l1i.prefetcher: Spatial Region offset:        0X8
 690000: system.cpu.l1i.prefetcher: PST address added: 0X201100008
 754000: system.cpu.l1i.prefetcher: PC:   0X44C3D0
 754000: system.cpu.l1i.prefetcher: Spatial Region address:       0X98
 754000: system.cpu.l1i.prefetcher: Spatial Region physical address:    0X4C3C0
 754000: system.cpu.l1i.prefetcher: Spatial Region offset:        0XF
 754000: system.cpu.l1i.prefetcher: PST address added: 0X2261E800F
 831000: system.cpu.l1i.prefetcher: PC:   0X44C400
 831000: system.cpu.l1i.prefetcher: Spatial Region address:       0X98
 831000: system.cpu.l1i.prefetcher: Spatial Region physical address:    0X4C400
 831000: system.cpu.l1i.prefetcher: Spatial Region offset:       0X10
 831000: system.cpu.l1i.prefetcher: PST address added: 0X226200010
 838000: system.cpu.l1d.prefetcher: PC:   0X44C3D7
 838000: system.cpu.l1d.prefetcher: Spatial Region address:      0X184
 838000: system.cpu.l1d.prefetcher: Spatial Region physical address:    0XC27E0
 838000: system.cpu.l1d.prefetcher: Spatial Region offset:       0X1F
 838000: system.cpu.l1d.prefetcher: PST address added: 0X2261EB81F
 844000: system.cpu.l1d.prefetcher: PC:   0X44C3E9
 844000: system.cpu.l1d.prefetcher: Spatial Region address:      0X183
 844000: system.cpu.l1d.prefetcher: Spatial Region physical address:    0XC1D00
 844000: system.cpu.l1d.prefetcher: Spatial Region offset:       0X14
 844000: system.cpu.l1d.prefetcher: PST address added: 0X2261F4814
 895000: system.cpu.l1i.prefetcher: PC:   0X44C440
 895000: system.cpu.l1i.prefetcher: Spatial Region address:       0X98
 895000: system.cpu.l1i.prefetcher: Spatial Region physical address:    0X4C440
 895000: system.cpu.l1i.prefetcher: Spatial Region offset:       0X11
 895000: system.cpu.l1i.prefetcher: PST address added: 0X226220011
 933000: system.cpu.l1d.prefetcher: PC:   0X44C3F8
 933000: system.cpu.l1d.prefetcher: Spatial Region address:      0X185
 933000: system.cpu.l1d.prefetcher: Spatial Region physical address:    0XC2890
 933000: system.cpu.l1d.prefetcher: Spatial Region offset:        0X2
 933000: system.cpu.l1d.prefetcher: PST address added: 0X2261FC002
 959000: system.cpu.l1i.prefetcher: PC:   0X44C480
 959000: system.cpu.l1i.prefetcher: Spatial Region address:       0X98
 959000: system.cpu.l1i.prefetcher: Spatial Region physical address:    0X4C480
 959000: system.cpu.l1i.prefetcher: Spatial Region offset:       0X12
 959000: system.cpu.l1i.prefetcher: PST address added: 0X226240012
 998000: system.cpu.l1d.prefetcher: PC:   0X44C406
 998000: system.cpu.l1d.prefetcher: Spatial Region address:      0X180
 998000: system.cpu.l1d.prefetcher: Spatial Region physical address:    0XC0118
 998000: system.cpu.l1d.prefetcher: Spatial Region offset:        0X4
 998000: system.cpu.l1d.prefetcher: PST address added: 0X226203004
1023000: system.cpu.l1i.prefetcher: PC:   0X44C4C0
1023000: system.cpu.l1i.prefetcher: Spatial Region address:       0X98
1023000: system.cpu.l1i.prefetcher: Spatial Region physical address:    0X4C4C0
1023000: system.cpu.l1i.prefetcher: Spatial Region offset:       0X13
1023000: system.cpu.l1i.prefetcher: PST address added: 0X226260013
1062000: system.cpu.l1d.prefetcher: PC:   0X44C414
1062000: system.cpu.l1d.prefetcher: Spatial Region address:      0X185
1062000: system.cpu.l1d.prefetcher: Spatial Region physical address:    0XC2848
1062000: system.cpu.l1d.prefetcher: Spatial Region offset:        0X1
1062000: system.cpu.l1d.prefetcher: PST address added: 0X22620A001
1125000: system.cpu.l1d.prefetcher: PC:   0X44C41B
1125000: system.cpu.l1d.prefetcher: Spatial Region address:      0X185
1125000: system.cpu.l1d.prefetcher: Spatial Region physical address:    0XC2810
1125000: system.cpu.l1d.prefetcher: Spatial Region offset:          0
1190000: system.cpu.l1d.prefetcher: PC:   0X44C422
1190000: system.cpu.l1d.prefetcher: Spatial Region address:      0X187
1190000: system.cpu.l1d.prefetcher: Spatial Region physical address:    0XC3CF8
1190000: system.cpu.l1d.prefetcher: Spatial Region offset:       0X13
1190000: system.cpu.l1d.prefetcher: PST address added: 0X226211013
1191000: system.cpu.l1d.prefetcher: PC:   0X44C427
1191000: system.cpu.l1d.prefetcher: Spatial Region address:      0X187
1191000: system.cpu.l1d.prefetcher: Spatial Region physical address:    0XC3CF0
1191000: system.cpu.l1d.prefetcher: Spatial Region offset:       0X13
1191000: system.cpu.l1d.prefetcher: PST address added: 0X226213813
1259000: system.cpu.l1d.prefetcher: PC:   0X44C43B
1259000: system.cpu.l1d.prefetcher: Spatial Region address:      0X17D
1259000: system.cpu.l1d.prefetcher: Spatial Region physical address:    0XBEAA0
1259000: system.cpu.l1d.prefetcher: Spatial Region offset:        0XA
1259000: system.cpu.l1d.prefetcher: PST address added: 0X22621D80A
1260000: system.cpu.l1i.prefetcher: PC:   0X44C500
1260000: system.cpu.l1i.prefetcher: Spatial Region address:       0X98
1260000: system.cpu.l1i.prefetcher: Spatial Region physical address:    0X4C500
1260000: system.cpu.l1i.prefetcher: Spatial Region offset:       0X14
1260000: system.cpu.l1i.prefetcher: PST address added: 0X226280014
1353000: system.cpu.l1i.prefetcher: PC:   0X44C540
1353000: system.cpu.l1i.prefetcher: Spatial Region address:       0X98
1353000: system.cpu.l1i.prefetcher: Spatial Region physical address:    0X4C540
1353000: system.cpu.l1i.prefetcher: Spatial Region offset:       0X15
1353000: system.cpu.l1i.prefetcher: PST address added: 0X2262A0015
1358000: system.cpu.l1d.prefetcher: PC:   0X44C494
1358000: system.cpu.l1d.prefetcher: Spatial Region address:      0X187
1358000: system.cpu.l1d.prefetcher: Spatial Region physical address:    0XC3CB8
1358000: system.cpu.l1d.prefetcher: Spatial Region offset:       0X12
1358000: system.cpu.l1d.prefetcher: PST address added: 0X22624A012
1359000: system.cpu.l1d.prefetcher: PC:   0X44C49B
1359000: system.cpu.l1d.prefetcher: Spatial Region address:      0X187
1359000: system.cpu.l1d.prefetcher: Spatial Region physical address:    0XC3CB0
1359000: system.cpu.l1d.prefetcher: Spatial Region offset:       0X12
1359000: system.cpu.l1d.prefetcher: PST address added: 0X22624D812
1421000: system.cpu.l1d.prefetcher: PC:   0X44C4B2
1421000: system.cpu.l1d.prefetcher: Spatial Region address:      0X131
1421000: system.cpu.l1d.prefetcher: Spatial Region physical address:    0X98FB8
1421000: system.cpu.l1d.prefetcher: Spatial Region offset:       0X1E
1421000: system.cpu.l1d.prefetcher: PST address added: 0X22625901E
1500000: system.cpu.l1i.prefetcher: PC:   0X44C5C0
1500000: system.cpu.l1i.prefetcher: Spatial Region address:       0X98
1500000: system.cpu.l1i.prefetcher: Spatial Region physical address:    0X4C5C0
1500000: system.cpu.l1i.prefetcher: Spatial Region offset:       0X17
1500000: system.cpu.l1i.prefetcher: PST address added: 0X2262E0017
1564000: system.cpu.l1i.prefetcher: PC:   0X44C600
1564000: system.cpu.l1i.prefetcher: Spatial Region address:       0X98
1564000: system.cpu.l1i.prefetcher: Spatial Region physical address:    0X4C600
1564000: system.cpu.l1i.prefetcher: Spatial Region offset:       0X18
1564000: system.cpu.l1i.prefetcher: PST address added: 0X226300018
1637000: system.cpu.l1d.prefetcher: PC:   0X44C4B2
1637000: system.cpu.l1d.prefetcher: Spatial Region address:      0X131
1637000: system.cpu.l1d.prefetcher: Spatial Region physical address:    0X98F74
1637000: system.cpu.l1d.prefetcher: Spatial Region offset:       0X1D
1637000: system.cpu.l1d.prefetcher: PST address added: 0X22625901D
1703000: system.cpu.l1i.prefetcher: PC:   0X44C690
1703000: system.cpu.l1i.prefetcher: Spatial Region address:       0X98
1703000: system.cpu.l1i.prefetcher: Spatial Region physical address:    0X4C680
1703000: system.cpu.l1i.prefetcher: Spatial Region offset:       0X1A
1703000: system.cpu.l1i.prefetcher: PST address added: 0X22634801A
1767000: system.cpu.l1i.prefetcher: PC:   0X44C6C0
1767000: system.cpu.l1i.prefetcher: Spatial Region address:       0X98
1767000: system.cpu.l1i.prefetcher: Spatial Region physical address:    0X4C6C0
1767000: system.cpu.l1i.prefetcher: Spatial Region offset:       0X1B
1767000: system.cpu.l1i.prefetcher: PST address added: 0X22636001B
1776000: system.cpu.l1d.prefetcher: PC:   0X44C6A2
1776000: system.cpu.l1d.prefetcher: Spatial Region address:      0X187
1776000: system.cpu.l1d.prefetcher: Spatial Region physical address:    0XC3E80
1776000: system.cpu.l1d.prefetcher: Spatial Region offset:       0X1A
1776000: system.cpu.l1d.prefetcher: PST address added: 0X22635101A
1831000: system.cpu.l1i.prefetcher: PC:   0X44C700
1831000: system.cpu.l1i.prefetcher: Spatial Region address:       0X98
1831000: system.cpu.l1i.prefetcher: Spatial Region physical address:    0X4C700
1831000: system.cpu.l1i.prefetcher: Spatial Region offset:       0X1C
1831000: system.cpu.l1i.prefetcher: PST address added: 0X22638001C
1910000: system.cpu.l1i.prefetcher: PC:   0X44C760
1910000: system.cpu.l1i.prefetcher: Spatial Region address:       0X98
1910000: system.cpu.l1i.prefetcher: Spatial Region physical address:    0X4C740
1910000: system.cpu.l1i.prefetcher: Spatial Region offset:       0X1D
1910000: system.cpu.l1i.prefetcher: PST address added: 0X2263B001D
1974000: system.cpu.l1i.prefetcher: PC:   0X44C780
1974000: system.cpu.l1i.prefetcher: Spatial Region address:       0X98
1974000: system.cpu.l1i.prefetcher: Spatial Region physical address:    0X4C780
1974000: system.cpu.l1i.prefetcher: Spatial Region offset:       0X1E
1974000: system.cpu.l1i.prefetcher: PST address added: 0X2263C001E
2038000: system.cpu.l1i.prefetcher: PC:   0X44C7C0
2038000: system.cpu.l1i.prefetcher: Spatial Region address:       0X98
2038000: system.cpu.l1i.prefetcher: Spatial Region physical address:    0X4C7C0
2038000: system.cpu.l1i.prefetcher: Spatial Region offset:       0X1F
2038000: system.cpu.l1i.prefetcher: PST address added: 0X2263E001F
2117000: system.cpu.l1i.prefetcher: PC:   0X44C668
2117000: system.cpu.l1i.prefetcher: Spatial Region address:       0X98
2117000: system.cpu.l1i.prefetcher: Spatial Region physical address:    0X4C640
2117000: system.cpu.l1i.prefetcher: Spatial Region offset:       0X19
2117000: system.cpu.l1i.prefetcher: PST address added: 0X226334019
2214000: system.cpu.l1i.prefetcher: PC:   0X44C800
2214000: system.cpu.l1i.prefetcher: Spatial Region address:       0X99
2214000: system.cpu.l1i.prefetcher: Spatial Region physical address:    0X4C800
2214000: system.cpu.l1i.prefetcher: Spatial Region offset:          0
2214000: system.cpu.l1i.prefetcher: PST address added: 0X226400000
2312000: system.cpu.l1d.prefetcher: PC:   0X44C4D0
2312000: system.cpu.l1d.prefetcher: Spatial Region address:      0X187
2312000: system.cpu.l1d.prefetcher: Spatial Region physical address:    0XC3EC0
2312000: system.cpu.l1d.prefetcher: Spatial Region offset:       0X1B
2312000: system.cpu.l1d.prefetcher: PST address added: 0X22626801B
2318000: system.cpu.l1i.prefetcher: PC:   0X44C580
2318000: system.cpu.l1i.prefetcher: Spatial Region address:       0X98
2318000: system.cpu.l1i.prefetcher: Spatial Region physical address:    0X4C580
2318000: system.cpu.l1i.prefetcher: Spatial Region offset:       0X16
2318000: system.cpu.l1i.prefetcher: PST address added: 0X2262C0016
2409000: system.cpu.l1i.prefetcher: PC:   0X44C840
2409000: system.cpu.l1i.prefetcher: Spatial Region address:       0X99
2409000: system.cpu.l1i.prefetcher: Spatial Region physical address:    0X4C840
2409000: system.cpu.l1i.prefetcher: Spatial Region offset:        0X1
2561000: system.cpu.l1d.prefetcher: PC:   0X44C4D0
2561000: system.cpu.l1d.prefetcher: Spatial Region address:      0X187
2561000: system.cpu.l1d.prefetcher: Spatial Region physical address:    0XC3F00
2561000: system.cpu.l1d.prefetcher: Spatial Region offset:       0X1C
2561000: system.cpu.l1d.prefetcher: PST address added: 0X22626801C
2749000: system.cpu.l1d.prefetcher: PC:   0X44C6E3
2749000: system.cpu.l1d.prefetcher: Spatial Region address:      0X187
2749000: system.cpu.l1d.prefetcher: Spatial Region physical address:    0XC3F40
2749000: system.cpu.l1d.prefetcher: Spatial Region offset:       0X1D
2749000: system.cpu.l1d.prefetcher: PST address added: 0X22637181D
2951000: system.cpu.l1d.prefetcher: PC:   0X44C6CB
2951000: system.cpu.l1d.prefetcher: Spatial Region address:      0X187
2951000: system.cpu.l1d.prefetcher: Spatial Region physical address:    0XC3F80
2951000: system.cpu.l1d.prefetcher: Spatial Region offset:       0X1E
2951000: system.cpu.l1d.prefetcher: PST address added: 0X22636581E
3043000: system.cpu.l1i.prefetcher: PC:   0X44C880
3043000: system.cpu.l1i.prefetcher: Spatial Region address:       0X99
3043000: system.cpu.l1i.prefetcher: Spatial Region physical address:    0X4C880
3043000: system.cpu.l1i.prefetcher: Spatial Region offset:        0X2
3254000: system.cpu.l1i.prefetcher: PC:   0X402240
3254000: system.cpu.l1i.prefetcher: Spatial Region address:        0X4
3254000: system.cpu.l1i.prefetcher: Spatial Region physical address:     0X2240
3254000: system.cpu.l1i.prefetcher: Spatial Region offset:        0X9
3254000: system.cpu.l1i.prefetcher: PST address added: 0X201120009
3345000: system.cpu.l1i.prefetcher: PC:   0X44D530
3345000: system.cpu.l1i.prefetcher: Spatial Region address:       0X9A
3345000: system.cpu.l1i.prefetcher: Spatial Region physical address:    0X4D500
3345000: system.cpu.l1i.prefetcher: Spatial Region offset:       0X14
3345000: system.cpu.l1i.prefetcher: PST address added: 0X226A98014
3409000: system.cpu.l1i.prefetcher: PC:   0X44D540
3409000: system.cpu.l1i.prefetcher: Spatial Region address:       0X9A
3409000: system.cpu.l1i.prefetcher: Spatial Region physical address:    0X4D540
3409000: system.cpu.l1i.prefetcher: Spatial Region offset:       0X15
3409000: system.cpu.l1i.prefetcher: PST address added: 0X226AA0015
3487000: system.cpu.l1i.prefetcher: PC:   0X44BDD0
3487000: system.cpu.l1i.prefetcher: Spatial Region address:       0X97
3487000: system.cpu.l1i.prefetcher: Spatial Region physical address:    0X4BDC0
3487000: system.cpu.l1i.prefetcher: Spatial Region offset:       0X17
3487000: system.cpu.l1i.prefetcher: PST address added: 0X225EE8017
3564000: system.cpu.l1i.prefetcher: PC:   0X44BE00
3564000: system.cpu.l1i.prefetcher: Spatial Region address:       0X97
3564000: system.cpu.l1i.prefetcher: Spatial Region physical address:    0X4BE00
3564000: system.cpu.l1i.prefetcher: Spatial Region offset:       0X18
3564000: system.cpu.l1i.prefetcher: PST address added: 0X225F00018
3628000: system.cpu.l1i.prefetcher: PC:   0X44BE40
3628000: system.cpu.l1i.prefetcher: Spatial Region address:       0X97
3628000: system.cpu.l1i.prefetcher: Spatial Region physical address:    0X4BE40
3628000: system.cpu.l1i.prefetcher: Spatial Region offset:       0X19
3692000: system.cpu.l1i.prefetcher: PC:   0X44BF1A
3692000: system.cpu.l1i.prefetcher: Spatial Region address:       0X97
3692000: system.cpu.l1i.prefetcher: Spatial Region physical address:    0X4BF00
3692000: system.cpu.l1i.prefetcher: Spatial Region offset:       0X1C
3756000: system.cpu.l1i.prefetcher: PC:   0X44BF40
3756000: system.cpu.l1i.prefetcher: Spatial Region address:       0X97
3756000: system.cpu.l1i.prefetcher: Spatial Region physical address:    0X4BF40
3756000: system.cpu.l1i.prefetcher: Spatial Region offset:       0X1D
3828000: system.cpu.l1d.prefetcher: PC:   0X4021A5
3828000: system.cpu.l1d.prefetcher: Spatial Region address:      0X187
3828000: system.cpu.l1d.prefetcher: Spatial Region physical address:    0XC3D4C
3828000: system.cpu.l1d.prefetcher: Spatial Region offset:       0X15
3828000: system.cpu.l1d.prefetcher: PST address added: 0X2010D2815
3842000: system.cpu.l1d.prefetcher: PC:   0X4021AF
3842000: system.cpu.l1d.prefetcher: Spatial Region address:      0X187
3842000: system.cpu.l1d.prefetcher: Spatial Region physical address:    0XC3D50
3842000: system.cpu.l1d.prefetcher: Spatial Region offset:       0X15
3842000: system.cpu.l1d.prefetcher: PST address added: 0X2010D7815
3850000: system.cpu.l1i.prefetcher: PC:   0X402280
3850000: system.cpu.l1i.prefetcher: Spatial Region address:        0X4
3850000: system.cpu.l1i.prefetcher: Spatial Region physical address:     0X2280
3850000: system.cpu.l1i.prefetcher: Spatial Region offset:        0XA
3850000: system.cpu.l1i.prefetcher: PST address added: 0X20114000A
3918000: system.cpu.l1d.prefetcher: PC:   0X4021BF
3918000: system.cpu.l1d.prefetcher: Spatial Region address:      0X183
3918000: system.cpu.l1d.prefetcher: Spatial Region physical address:    0XC1D8C
3918000: system.cpu.l1d.prefetcher: Spatial Region offset:       0X16
3918000: system.cpu.l1d.prefetcher: PST address added: 0X2010DF816
3965000: system.cpu.l1i.prefetcher: PC:   0X40233D
3965000: system.cpu.l1i.prefetcher: Spatial Region address:        0X4
3965000: system.cpu.l1i.prefetcher: Spatial Region physical address:     0X2300
3965000: system.cpu.l1i.prefetcher: Spatial Region offset:        0XC
3965000: system.cpu.l1i.prefetcher: PST address added: 0X20119E80C
4029000: system.cpu.l1i.prefetcher: PC:   0X402340
4029000: system.cpu.l1i.prefetcher: Spatial Region address:        0X4
4029000: system.cpu.l1i.prefetcher: Spatial Region physical address:     0X2340
4029000: system.cpu.l1i.prefetcher: Spatial Region offset:        0XD
4029000: system.cpu.l1i.prefetcher: PST address added: 0X2011A000D
4093000: system.cpu.l1i.prefetcher: PC:   0X402380
4093000: system.cpu.l1i.prefetcher: Spatial Region address:        0X4
4093000: system.cpu.l1i.prefetcher: Spatial Region physical address:     0X2380
4093000: system.cpu.l1i.prefetcher: Spatial Region offset:        0XE
4093000: system.cpu.l1i.prefetcher: PST address added: 0X2011C000E
4157000: system.cpu.l1i.prefetcher: PC:   0X402893
4157000: system.cpu.l1i.prefetcher: Spatial Region address:        0X5
4157000: system.cpu.l1i.prefetcher: Spatial Region physical address:     0X2880
4157000: system.cpu.l1i.prefetcher: Spatial Region offset:        0X2
4157000: system.cpu.l1i.prefetcher: PST address added: 0X201449802
4221000: system.cpu.l1i.prefetcher: PC:   0X4028C0
4221000: system.cpu.l1i.prefetcher: Spatial Region address:        0X5
4221000: system.cpu.l1i.prefetcher: Spatial Region physical address:     0X28C0
4221000: system.cpu.l1i.prefetcher: Spatial Region offset:        0X3
4221000: system.cpu.l1i.prefetcher: PST address added: 0X201460003
4300000: system.cpu.l1i.prefetcher: PC:   0X401D50
4300000: system.cpu.l1i.prefetcher: Spatial Region address:        0X3
4300000: system.cpu.l1i.prefetcher: Spatial Region physical address:     0X1D40
4300000: system.cpu.l1i.prefetcher: Spatial Region offset:       0X15
4391000: system.cpu.l1i.prefetcher: PC:   0X401D80
4391000: system.cpu.l1i.prefetcher: Spatial Region address:        0X3
4391000: system.cpu.l1i.prefetcher: Spatial Region physical address:     0X1D80
4391000: system.cpu.l1i.prefetcher: Spatial Region offset:       0X16
4457000: system.cpu.l1i.prefetcher: PC:   0X401DC0
4457000: system.cpu.l1i.prefetcher: Spatial Region address:        0X3
4457000: system.cpu.l1i.prefetcher: Spatial Region physical address:     0X1DC0
4457000: system.cpu.l1i.prefetcher: Spatial Region offset:       0X17
4521000: system.cpu.l1i.prefetcher: PC:   0X401E00
4521000: system.cpu.l1i.prefetcher: Spatial Region address:        0X3
4521000: system.cpu.l1i.prefetcher: Spatial Region physical address:     0X1E00
4521000: system.cpu.l1i.prefetcher: Spatial Region offset:       0X18
4589000: system.cpu.l1i.prefetcher: PC:   0X401E40
4589000: system.cpu.l1i.prefetcher: Spatial Region address:        0X3
4589000: system.cpu.l1i.prefetcher: Spatial Region physical address:     0X1E40
4589000: system.cpu.l1i.prefetcher: Spatial Region offset:       0X19
4657000: system.cpu.l1i.prefetcher: PC:   0X401E80
4657000: system.cpu.l1i.prefetcher: Spatial Region address:        0X3
4657000: system.cpu.l1i.prefetcher: Spatial Region physical address:     0X1E80
4657000: system.cpu.l1i.prefetcher: Spatial Region offset:       0X1A
4657000: system.cpu.l1i.prefetcher: PST address added: 0X200F4001A
4721000: system.cpu.l1i.prefetcher: PC:   0X401F14
4721000: system.cpu.l1i.prefetcher: Spatial Region address:        0X3
4721000: system.cpu.l1i.prefetcher: Spatial Region physical address:     0X1F00
4721000: system.cpu.l1i.prefetcher: Spatial Region offset:       0X1C
4721000: system.cpu.l1i.prefetcher: PST address added: 0X200F8A01C
4785000: system.cpu.l1i.prefetcher: PC:   0X401F40
4785000: system.cpu.l1i.prefetcher: Spatial Region address:        0X3
4785000: system.cpu.l1i.prefetcher: Spatial Region physical address:     0X1F40
4785000: system.cpu.l1i.prefetcher: Spatial Region offset:       0X1D
4785000: system.cpu.l1i.prefetcher: PST address added: 0X200FA001D
4862000: system.cpu.l1i.prefetcher: PC:   0X4022C0
4862000: system.cpu.l1i.prefetcher: Spatial Region address:        0X4
4862000: system.cpu.l1i.prefetcher: Spatial Region physical address:     0X22C0
4862000: system.cpu.l1i.prefetcher: Spatial Region offset:        0XB
4862000: system.cpu.l1i.prefetcher: PST address added: 0X20116000B
4967000: system.cpu.l1i.prefetcher: PC:   0X44C360
4967000: system.cpu.l1i.prefetcher: Spatial Region address:       0X98
4967000: system.cpu.l1i.prefetcher: Spatial Region physical address:    0X4C340
4967000: system.cpu.l1i.prefetcher: Spatial Region offset:        0XD
4967000: system.cpu.l1i.prefetcher: PST address added: 0X2261B000D
5031000: system.cpu.l1i.prefetcher: PC:   0X44C380
5031000: system.cpu.l1i.prefetcher: Spatial Region address:       0X98
5031000: system.cpu.l1i.prefetcher: Spatial Region physical address:    0X4C380
5031000: system.cpu.l1i.prefetcher: Spatial Region offset:        0XE
5039000: system.cpu.l1d.prefetcher: PC:   0X44C37C
5039000: system.cpu.l1d.prefetcher: Spatial Region address:      0X17C
5039000: system.cpu.l1d.prefetcher: Spatial Region physical address:    0XBE7A8
5039000: system.cpu.l1d.prefetcher: Spatial Region offset:       0X1E
5039000: system.cpu.l1d.prefetcher: PST address added: 0X2261BE01E
5101000: system.cpu.l1d.prefetcher: PC:   0X44C380
5101000: system.cpu.l1d.prefetcher: Spatial Region address:      0X17C
5101000: system.cpu.l1d.prefetcher: Spatial Region physical address:    0XBE7C0
5101000: system.cpu.l1d.prefetcher: Spatial Region offset:       0X1F
5101000: system.cpu.l1d.prefetcher: PST address added: 0X2261C001F
5233000: system.cpu.l1d.prefetcher: PC:   0X44C37C
5233000: system.cpu.l1d.prefetcher: Spatial Region address:      0X17C
5233000: system.cpu.l1d.prefetcher: Spatial Region physical address:    0XBE620
5233000: system.cpu.l1d.prefetcher: Spatial Region offset:       0X18
5233000: system.cpu.l1d.prefetcher: PST address added: 0X2261BE018
5323000: system.cpu.l1d.prefetcher: PC:   0X44C39C
5323000: system.cpu.l1d.prefetcher: Spatial Region address:      0X17C
5323000: system.cpu.l1d.prefetcher: Spatial Region physical address:    0XBE640
5323000: system.cpu.l1d.prefetcher: Spatial Region offset:       0X19
5323000: system.cpu.l1d.prefetcher: PST address added: 0X2261CE019
5411000: system.cpu.l1d.prefetcher: PC:   0X402275
5411000: system.cpu.l1d.prefetcher: Spatial Region address:      0X183
5411000: system.cpu.l1d.prefetcher: Spatial Region physical address:    0XC1DC0
5411000: system.cpu.l1d.prefetcher: Spatial Region offset:       0X17
5411000: system.cpu.l1d.prefetcher: PST address added: 0X20113A817
5428000: system.cpu.l1d.prefetcher: PC:   0X44C37C
5428000: system.cpu.l1d.prefetcher: Spatial Region address:      0X17D
5428000: system.cpu.l1d.prefetcher: Spatial Region physical address:    0XBE888
5428000: system.cpu.l1d.prefetcher: Spatial Region offset:        0X2
5428000: system.cpu.l1d.prefetcher: PST address added: 0X2261BE002
5581000: system.cpu.l1d.prefetcher: PC:   0X44C37C
5581000: system.cpu.l1d.prefetcher: Spatial Region address:      0X17C
5581000: system.cpu.l1d.prefetcher: Spatial Region physical address:    0XBE4D0
5581000: system.cpu.l1d.prefetcher: Spatial Region offset:       0X13
5581000: system.cpu.l1d.prefetcher: PST address added: 0X2261BE013
5727000: system.cpu.l1d.prefetcher: PC:   0X44C37C
5727000: system.cpu.l1d.prefetcher: Spatial Region address:      0X17C
5727000: system.cpu.l1d.prefetcher: Spatial Region physical address:    0XBE770
5727000: system.cpu.l1d.prefetcher: Spatial Region offset:       0X1D
5727000: system.cpu.l1d.prefetcher: PST address added: 0X2261BE01D
5802000: system.cpu.l1d.prefetcher: PC:   0X44C3C8
5802000: system.cpu.l1d.prefetcher: Spatial Region address:      0X187
5802000: system.cpu.l1d.prefetcher: Spatial Region physical address:    0XC3D80
5802000: system.cpu.l1d.prefetcher: Spatial Region offset:       0X16
5802000: system.cpu.l1d.prefetcher: PST address added: 0X2261E4016
5874000: system.cpu.l1d.prefetcher: PC:   0X44C3C8
5874000: system.cpu.l1d.prefetcher: Spatial Region address:      0X187
5874000: system.cpu.l1d.prefetcher: Spatial Region physical address:    0XC3D88
5874000: system.cpu.l1d.prefetcher: Spatial Region offset:       0X16
5874000: system.cpu.l1d.prefetcher: PST address added: 0X2261E4016
5931000: system.cpu.l1d.prefetcher: PC:   0X402311
5931000: system.cpu.l1d.prefetcher: Spatial Region address:          0
5931000: system.cpu.l1d.prefetcher: Spatial Region physical address:      0X2E8
5931000: system.cpu.l1d.prefetcher: Spatial Region offset:        0XB
5931000: system.cpu.l1d.prefetcher: PST address added: 0X20118880B
5945000: system.cpu.l1i.prefetcher: PC:   0X4023C0
5945000: system.cpu.l1i.prefetcher: Spatial Region address:        0X4
5945000: system.cpu.l1i.prefetcher: Spatial Region physical address:     0X23C0
5945000: system.cpu.l1i.prefetcher: Spatial Region offset:        0XF
5945000: system.cpu.l1i.prefetcher: PST address added: 0X2011E000F
6048000: system.cpu.l1i.prefetcher: PC:   0X421940
6048000: system.cpu.l1i.prefetcher: Spatial Region address:       0X43
6048000: system.cpu.l1i.prefetcher: Spatial Region physical address:    0X21940
6048000: system.cpu.l1i.prefetcher: Spatial Region offset:        0X5
6048000: system.cpu.l1i.prefetcher: PST address added: 0X210CA0005
6139000: system.cpu.l1i.prefetcher: PC:   0X421980
6139000: system.cpu.l1i.prefetcher: Spatial Region address:       0X43
6139000: system.cpu.l1i.prefetcher: Spatial Region physical address:    0X21980
6139000: system.cpu.l1i.prefetcher: Spatial Region offset:        0X6
6139000: system.cpu.l1i.prefetcher: PST address added: 0X210CC0006
6203000: system.cpu.l1i.prefetcher: PC:   0X4219C0
6203000: system.cpu.l1i.prefetcher: Spatial Region address:       0X43
6203000: system.cpu.l1i.prefetcher: Spatial Region physical address:    0X219C0
6203000: system.cpu.l1i.prefetcher: Spatial Region offset:        0X7
6203000: system.cpu.l1i.prefetcher: PST address added: 0X210CE0007
6276000: system.cpu.l1d.prefetcher: PC:   0X402318
6276000: system.cpu.l1d.prefetcher: Spatial Region address:      0X17E
6276000: system.cpu.l1d.prefetcher: Spatial Region physical address:    0XBF0D0
6276000: system.cpu.l1d.prefetcher: Spatial Region offset:        0X3
6276000: system.cpu.l1d.prefetcher: PST address added: 0X20118C003
6289000: system.cpu.l1d.prefetcher: PC:   0X402311
6289000: system.cpu.l1d.prefetcher: Spatial Region address:          0
6289000: system.cpu.l1d.prefetcher: Spatial Region physical address:      0X300
6289000: system.cpu.l1d.prefetcher: Spatial Region offset:        0XC
6289000: system.cpu.l1d.prefetcher: PST address added: 0X20118880C
6381000: system.cpu.l1i.prefetcher: PC:   0X421AB0
6381000: system.cpu.l1i.prefetcher: Spatial Region address:       0X43
6381000: system.cpu.l1i.prefetcher: Spatial Region physical address:    0X21A80
6381000: system.cpu.l1i.prefetcher: Spatial Region offset:        0XA
6381000: system.cpu.l1i.prefetcher: PST address added: 0X210D5800A
6472000: system.cpu.l1i.prefetcher: PC:   0X421AC0
6472000: system.cpu.l1i.prefetcher: Spatial Region address:       0X43
6472000: system.cpu.l1i.prefetcher: Spatial Region physical address:    0X21AC0
6472000: system.cpu.l1i.prefetcher: Spatial Region offset:        0XB
6472000: system.cpu.l1i.prefetcher: PST address added: 0X210D6000B
6536000: system.cpu.l1i.prefetcher: PC:   0X421B00
6536000: system.cpu.l1i.prefetcher: Spatial Region address:       0X43
6536000: system.cpu.l1i.prefetcher: Spatial Region physical address:    0X21B00
6536000: system.cpu.l1i.prefetcher: Spatial Region offset:        0XC
6536000: system.cpu.l1i.prefetcher: PST address added: 0X210D8000C
6628000: system.cpu.l1i.prefetcher: PC:   0X484A40
6628000: system.cpu.l1i.prefetcher: Spatial Region address:      0X109
6628000: system.cpu.l1i.prefetcher: Spatial Region physical address:    0X84A40
6628000: system.cpu.l1i.prefetcher: Spatial Region offset:        0X9
6628000: system.cpu.l1i.prefetcher: PST address added: 0X242520009
6705000: system.cpu.l1i.prefetcher: PC:   0X484A80
6705000: system.cpu.l1i.prefetcher: Spatial Region address:      0X109
6705000: system.cpu.l1i.prefetcher: Spatial Region physical address:    0X84A80
6705000: system.cpu.l1i.prefetcher: Spatial Region offset:        0XA
6705000: system.cpu.l1i.prefetcher: PST address added: 0X24254000A
6797000: system.cpu.l1i.prefetcher: PC:   0X421A50
6797000: system.cpu.l1i.prefetcher: Spatial Region address:       0X43
6797000: system.cpu.l1i.prefetcher: Spatial Region physical address:    0X21A40
6797000: system.cpu.l1i.prefetcher: Spatial Region offset:        0X9
6797000: system.cpu.l1i.prefetcher: PST address added: 0X210D28009
6887000: system.cpu.l1d.prefetcher: PC:   0X402318
6887000: system.cpu.l1d.prefetcher: Spatial Region address:      0X17E
6887000: system.cpu.l1d.prefetcher: Spatial Region physical address:    0XBF0B8
6887000: system.cpu.l1d.prefetcher: Spatial Region offset:        0X2
6887000: system.cpu.l1d.prefetcher: PST address added: 0X20118C002
6888000: system.cpu.l1d.prefetcher: PC:   0X402328
6888000: system.cpu.l1d.prefetcher: Spatial Region address:          0
6888000: system.cpu.l1d.prefetcher: Spatial Region physical address:      0X340
6888000: system.cpu.l1d.prefetcher: Spatial Region offset:        0XD
6888000: system.cpu.l1d.prefetcher: PST address added: 0X20119400D
6993000: system.cpu.l1i.prefetcher: PC:   0X422520
6993000: system.cpu.l1i.prefetcher: Spatial Region address:       0X44
6993000: system.cpu.l1i.prefetcher: Spatial Region physical address:    0X22500
6993000: system.cpu.l1i.prefetcher: Spatial Region offset:       0X14
6993000: system.cpu.l1i.prefetcher: PST address added: 0X211290014
7084000: system.cpu.l1i.prefetcher: PC:   0X422540
7084000: system.cpu.l1i.prefetcher: Spatial Region address:       0X44
7084000: system.cpu.l1i.prefetcher: Spatial Region physical address:    0X22540
7084000: system.cpu.l1i.prefetcher: Spatial Region offset:       0X15
7084000: system.cpu.l1i.prefetcher: PST address added: 0X2112A0015
7148000: system.cpu.l1i.prefetcher: PC:   0X422580
7148000: system.cpu.l1i.prefetcher: Spatial Region address:       0X44
7148000: system.cpu.l1i.prefetcher: Spatial Region physical address:    0X22580
7148000: system.cpu.l1i.prefetcher: Spatial Region offset:       0X16
7148000: system.cpu.l1i.prefetcher: PST address added: 0X2112C0016
7216000: system.cpu.l1i.prefetcher: PC:   0X4225C0
7216000: system.cpu.l1i.prefetcher: Spatial Region address:       0X44
7216000: system.cpu.l1i.prefetcher: Spatial Region physical address:    0X225C0
7216000: system.cpu.l1i.prefetcher: Spatial Region offset:       0X17
7216000: system.cpu.l1i.prefetcher: PST address added: 0X2112E0017
7282000: system.cpu.l1i.prefetcher: PC:   0X422600
7282000: system.cpu.l1i.prefetcher: Spatial Region address:       0X44
7282000: system.cpu.l1i.prefetcher: Spatial Region physical address:    0X22600
7282000: system.cpu.l1i.prefetcher: Spatial Region offset:       0X18
7282000: system.cpu.l1i.prefetcher: PST address added: 0X211300018
7374000: system.cpu.l1i.prefetcher: PC:   0X484CE0
7374000: system.cpu.l1i.prefetcher: Spatial Region address:      0X109
7374000: system.cpu.l1i.prefetcher: Spatial Region physical address:    0X84CC0
7374000: system.cpu.l1i.prefetcher: Spatial Region offset:       0X13
7374000: system.cpu.l1i.prefetcher: PST address added: 0X242670013
7438000: system.cpu.l1i.prefetcher: PC:   0X484D00
7438000: system.cpu.l1i.prefetcher: Spatial Region address:      0X109
7438000: system.cpu.l1i.prefetcher: Spatial Region physical address:    0X84D00
7438000: system.cpu.l1i.prefetcher: Spatial Region offset:       0X14
7438000: system.cpu.l1i.prefetcher: PST address added: 0X242680014
7502000: system.cpu.l1i.prefetcher: PC:   0X484D40
7502000: system.cpu.l1i.prefetcher: Spatial Region address:      0X109
7502000: system.cpu.l1i.prefetcher: Spatial Region physical address:    0X84D40
7502000: system.cpu.l1i.prefetcher: Spatial Region offset:       0X15
7502000: system.cpu.l1i.prefetcher: PST address added: 0X2426A0015
7570000: system.cpu.l1i.prefetcher: PC:   0X484D80
7570000: system.cpu.l1i.prefetcher: Spatial Region address:      0X109
7570000: system.cpu.l1i.prefetcher: Spatial Region physical address:    0X84D80
7570000: system.cpu.l1i.prefetcher: Spatial Region offset:       0X16
7570000: system.cpu.l1i.prefetcher: PST address added: 0X2426C0016
7666000: system.cpu.l1i.prefetcher: PC:   0X421A00
7666000: system.cpu.l1i.prefetcher: Spatial Region address:       0X43
7666000: system.cpu.l1i.prefetcher: Spatial Region physical address:    0X21A00
7666000: system.cpu.l1i.prefetcher: Spatial Region offset:        0X8
7666000: system.cpu.l1i.prefetcher: PST address added: 0X210D00008
7767000: system.cpu.l1d.prefetcher: PC:   0X402328
7767000: system.cpu.l1d.prefetcher: Spatial Region address:          0
7767000: system.cpu.l1d.prefetcher: Spatial Region physical address:      0X388
7767000: system.cpu.l1d.prefetcher: Spatial Region offset:        0XE
7767000: system.cpu.l1d.prefetcher: PST address added: 0X20119400E
7768000: system.cpu.l1d.prefetcher: PC:   0X40232C
7768000: system.cpu.l1d.prefetcher: Spatial Region address:          0
7768000: system.cpu.l1d.prefetcher: Spatial Region physical address:      0X380
7768000: system.cpu.l1d.prefetcher: Spatial Region offset:        0XE
7768000: system.cpu.l1d.prefetcher: PST address added: 0X20119600E
7872000: system.cpu.l1i.prefetcher: PC:   0X470100
7872000: system.cpu.l1i.prefetcher: Spatial Region address:       0XE0
7872000: system.cpu.l1i.prefetcher: Spatial Region physical address:    0X70100
7872000: system.cpu.l1i.prefetcher: Spatial Region offset:        0X4
7872000: system.cpu.l1i.prefetcher: PST address added: 0X238080004
8125000: system.cpu.l1i.prefetcher: PC:   0X470140
8125000: system.cpu.l1i.prefetcher: Spatial Region address:       0XE0
8125000: system.cpu.l1i.prefetcher: Spatial Region physical address:    0X70140
8125000: system.cpu.l1i.prefetcher: Spatial Region offset:        0X5
8125000: system.cpu.l1i.prefetcher: PST address added: 0X2380A0005
8189000: system.cpu.l1i.prefetcher: PC:   0X470180
8189000: system.cpu.l1i.prefetcher: Spatial Region address:       0XE0
8189000: system.cpu.l1i.prefetcher: Spatial Region physical address:    0X70180
8189000: system.cpu.l1i.prefetcher: Spatial Region offset:        0X6
8189000: system.cpu.l1i.prefetcher: PST address added: 0X2380C0006
8281000: system.cpu.l1i.prefetcher: PC:   0X422480
8281000: system.cpu.l1i.prefetcher: Spatial Region address:       0X44
8281000: system.cpu.l1i.prefetcher: Spatial Region physical address:    0X22480
8281000: system.cpu.l1i.prefetcher: Spatial Region offset:       0X12
8281000: system.cpu.l1i.prefetcher: PST address added: 0X211240012
8358000: system.cpu.l1i.prefetcher: PC:   0X4224C0
8358000: system.cpu.l1i.prefetcher: Spatial Region address:       0X44
8358000: system.cpu.l1i.prefetcher: Spatial Region physical address:    0X224C0
8358000: system.cpu.l1i.prefetcher: Spatial Region offset:       0X13
8358000: system.cpu.l1i.prefetcher: PST address added: 0X211260013
8469000: system.cpu.l1d.prefetcher: PC:   0X402311
8469000: system.cpu.l1d.prefetcher: Spatial Region address:          0
8469000: system.cpu.l1d.prefetcher: Spatial Region physical address:      0X3C0
8469000: system.cpu.l1d.prefetcher: Spatial Region offset:        0XF
8469000: system.cpu.l1d.prefetcher: PST address added: 0X20118880F
8547000: system.cpu.l1i.prefetcher: PC:   0X484CA0
8547000: system.cpu.l1i.prefetcher: Spatial Region address:      0X109
8547000: system.cpu.l1i.prefetcher: Spatial Region physical address:    0X84C80
8547000: system.cpu.l1i.prefetcher: Spatial Region offset:       0X12
8547000: system.cpu.l1i.prefetcher: PST address added: 0X242650012
8672000: system.cpu.l1i.prefetcher: PC:   0X422640
8672000: system.cpu.l1i.prefetcher: Spatial Region address:       0X44
8672000: system.cpu.l1i.prefetcher: Spatial Region physical address:    0X22640
8672000: system.cpu.l1i.prefetcher: Spatial Region offset:       0X19
8672000: system.cpu.l1i.prefetcher: PST address added: 0X211320019
8736000: system.cpu.l1i.prefetcher: PC:   0X422680
8736000: system.cpu.l1i.prefetcher: Spatial Region address:       0X44
8736000: system.cpu.l1i.prefetcher: Spatial Region physical address:    0X22680
8736000: system.cpu.l1i.prefetcher: Spatial Region offset:       0X1A
8736000: system.cpu.l1i.prefetcher: PST address added: 0X21134001A
8804000: system.cpu.l1i.prefetcher: PC:   0X4226C0
8804000: system.cpu.l1i.prefetcher: Spatial Region address:       0X44
8804000: system.cpu.l1i.prefetcher: Spatial Region physical address:    0X226C0
8804000: system.cpu.l1i.prefetcher: Spatial Region offset:       0X1B
8804000: system.cpu.l1i.prefetcher: PST address added: 0X21136001B
8896000: system.cpu.l1i.prefetcher: PC:   0X422350
8896000: system.cpu.l1i.prefetcher: Spatial Region address:       0X44
8896000: system.cpu.l1i.prefetcher: Spatial Region physical address:    0X22340
8896000: system.cpu.l1i.prefetcher: Spatial Region offset:        0XD
8896000: system.cpu.l1i.prefetcher: PST address added: 0X2111A800D
8960000: system.cpu.l1i.prefetcher: PC:   0X422380
8960000: system.cpu.l1i.prefetcher: Spatial Region address:       0X44
8960000: system.cpu.l1i.prefetcher: Spatial Region physical address:    0X22380
8960000: system.cpu.l1i.prefetcher: Spatial Region offset:        0XE
9024000: system.cpu.l1i.prefetcher: PC:   0X4223C0
9024000: system.cpu.l1i.prefetcher: Spatial Region address:       0X44
9024000: system.cpu.l1i.prefetcher: Spatial Region physical address:    0X223C0
9024000: system.cpu.l1i.prefetcher: Spatial Region offset:        0XF
9097000: system.cpu.l1d.prefetcher: PC:   0X402318
9097000: system.cpu.l1d.prefetcher: Spatial Region address:      0X17E
9097000: system.cpu.l1d.prefetcher: Spatial Region physical address:    0XBF078
9097000: system.cpu.l1d.prefetcher: Spatial Region offset:        0X1
9097000: system.cpu.l1d.prefetcher: PST address added: 0X20118C001
9098000: system.cpu.l1d.prefetcher: PC:   0X402328
9098000: system.cpu.l1d.prefetcher: Spatial Region address:          0
9098000: system.cpu.l1d.prefetcher: Spatial Region physical address:      0X400
9098000: system.cpu.l1d.prefetcher: Spatial Region offset:       0X10
9098000: system.cpu.l1d.prefetcher: PST address added: 0X201194010
9199000: system.cpu.l1i.prefetcher: PC:   0X421B40
9199000: system.cpu.l1i.prefetcher: Spatial Region address:       0X43
9199000: system.cpu.l1i.prefetcher: Spatial Region physical address:    0X21B40
9199000: system.cpu.l1i.prefetcher: Spatial Region offset:        0XD
9199000: system.cpu.l1i.prefetcher: PST address added: 0X210DA000D
9294000: system.cpu.l1i.prefetcher: PC:   0X421B80
9294000: system.cpu.l1i.prefetcher: Spatial Region address:       0X43
9294000: system.cpu.l1i.prefetcher: Spatial Region physical address:    0X21B80
9294000: system.cpu.l1i.prefetcher: Spatial Region offset:        0XE
9294000: system.cpu.l1i.prefetcher: PST address added: 0X210DC000E
9386000: system.cpu.l1i.prefetcher: PC:   0X422330
9386000: system.cpu.l1i.prefetcher: Spatial Region address:       0X44
9386000: system.cpu.l1i.prefetcher: Spatial Region physical address:    0X22300
9386000: system.cpu.l1i.prefetcher: Spatial Region offset:        0XC
9386000: system.cpu.l1i.prefetcher: PST address added: 0X21119800C
9461000: system.cpu.l1i.prefetcher: PC:   0X422400
9461000: system.cpu.l1i.prefetcher: Spatial Region address:       0X44
9461000: system.cpu.l1i.prefetcher: Spatial Region physical address:    0X22400
9461000: system.cpu.l1i.prefetcher: Spatial Region offset:       0X10
9553000: system.cpu.l1i.prefetcher: PC:   0X46E1A0
9553000: system.cpu.l1i.prefetcher: Spatial Region address:       0XDC
9553000: system.cpu.l1i.prefetcher: Spatial Region physical address:    0X6E180
9553000: system.cpu.l1i.prefetcher: Spatial Region offset:        0X6
9553000: system.cpu.l1i.prefetcher: PST address added: 0X2370D0006
9630000: system.cpu.l1i.prefetcher: PC:   0X46E1C0
9630000: system.cpu.l1i.prefetcher: Spatial Region address:       0XDC
9630000: system.cpu.l1i.prefetcher: Spatial Region physical address:    0X6E1C0
9630000: system.cpu.l1i.prefetcher: Spatial Region offset:        0X7
9630000: system.cpu.l1i.prefetcher: PST address added: 0X2370E0007
9694000: system.cpu.l1i.prefetcher: PC:   0X46E200
9694000: system.cpu.l1i.prefetcher: Spatial Region address:       0XDC
9694000: system.cpu.l1i.prefetcher: Spatial Region physical address:    0X6E200
9694000: system.cpu.l1i.prefetcher: Spatial Region offset:        0X8
9694000: system.cpu.l1i.prefetcher: PST address added: 0X237100008
9768000: system.cpu.l1d.prefetcher: PC:   0X402328
9768000: system.cpu.l1d.prefetcher: Spatial Region address:          0
9768000: system.cpu.l1d.prefetcher: Spatial Region physical address:      0X448
9768000: system.cpu.l1d.prefetcher: Spatial Region offset:       0X11
9768000: system.cpu.l1d.prefetcher: PST address added: 0X201194011
9769000: system.cpu.l1d.prefetcher: PC:   0X40232C
9769000: system.cpu.l1d.prefetcher: Spatial Region address:          0
9769000: system.cpu.l1d.prefetcher: Spatial Region physical address:      0X440
9769000: system.cpu.l1d.prefetcher: Spatial Region offset:       0X11
9769000: system.cpu.l1d.prefetcher: PST address added: 0X201196011
9873000: system.cpu.l1i.prefetcher: PC:   0X422790
9873000: system.cpu.l1i.prefetcher: Spatial Region address:       0X44
9873000: system.cpu.l1i.prefetcher: Spatial Region physical address:    0X22780
9873000: system.cpu.l1i.prefetcher: Spatial Region offset:       0X1E
9873000: system.cpu.l1i.prefetcher: PST address added: 0X2113C801E
9937000: system.cpu.l1i.prefetcher: PC:   0X4227C0
9937000: system.cpu.l1i.prefetcher: Spatial Region address:       0X44
9937000: system.cpu.l1i.prefetcher: Spatial Region physical address:    0X227C0
9937000: system.cpu.l1i.prefetcher: Spatial Region offset:       0X1F
9937000: system.cpu.l1i.prefetcher: PST address added: 0X2113E001F
10001000: system.cpu.l1i.prefetcher: PC:   0X422800
10001000: system.cpu.l1i.prefetcher: Spatial Region address:       0X45
10001000: system.cpu.l1i.prefetcher: Spatial Region physical address:    0X22800
10001000: system.cpu.l1i.prefetcher: Spatial Region offset:          0
10001000: system.cpu.l1i.prefetcher: PST address added: 0X211400000
10147000: system.cpu.l1d.prefetcher: PC:   0X402311
10147000: system.cpu.l1d.prefetcher: Spatial Region address:          0
10147000: system.cpu.l1d.prefetcher: Spatial Region physical address:      0X480
10147000: system.cpu.l1d.prefetcher: Spatial Region offset:       0X12
10147000: system.cpu.l1d.prefetcher: PST address added: 0X201188812
10212000: system.cpu.l1i.prefetcher: PC:   0X46E0E0
10212000: system.cpu.l1i.prefetcher: Spatial Region address:       0XDC
10212000: system.cpu.l1i.prefetcher: Spatial Region physical address:    0X6E0C0
10212000: system.cpu.l1i.prefetcher: Spatial Region offset:        0X3
10212000: system.cpu.l1i.prefetcher: PST address added: 0X237070003
10276000: system.cpu.l1i.prefetcher: PC:   0X46E100
10276000: system.cpu.l1i.prefetcher: Spatial Region address:       0XDC
10276000: system.cpu.l1i.prefetcher: Spatial Region physical address:    0X6E100
10276000: system.cpu.l1i.prefetcher: Spatial Region offset:        0X4
10340000: system.cpu.l1i.prefetcher: PC:   0X46E140
10340000: system.cpu.l1i.prefetcher: Spatial Region address:       0XDC
10340000: system.cpu.l1i.prefetcher: Spatial Region physical address:    0X6E140
10340000: system.cpu.l1i.prefetcher: Spatial Region offset:        0X5
10432000: system.cpu.l1i.prefetcher: PC:   0X46F9F0
10432000: system.cpu.l1i.prefetcher: Spatial Region address:       0XDF
10432000: system.cpu.l1i.prefetcher: Spatial Region physical address:    0X6F9C0
10432000: system.cpu.l1i.prefetcher: Spatial Region offset:        0X7
10432000: system.cpu.l1i.prefetcher: PST address added: 0X237CF8007
10496000: system.cpu.l1i.prefetcher: PC:   0X46FA00
10496000: system.cpu.l1i.prefetcher: Spatial Region address:       0XDF
10496000: system.cpu.l1i.prefetcher: Spatial Region physical address:    0X6FA00
10496000: system.cpu.l1i.prefetcher: Spatial Region offset:        0X8
10496000: system.cpu.l1i.prefetcher: PST address added: 0X237D00008
10560000: system.cpu.l1i.prefetcher: PC:   0X46FA40
10560000: system.cpu.l1i.prefetcher: Spatial Region address:       0XDF
10560000: system.cpu.l1i.prefetcher: Spatial Region physical address:    0X6FA40
10560000: system.cpu.l1i.prefetcher: Spatial Region offset:        0X9
10560000: system.cpu.l1i.prefetcher: PST address added: 0X237D20009
10656000: system.cpu.l1i.prefetcher: PC:   0X422700
10656000: system.cpu.l1i.prefetcher: Spatial Region address:       0X44
10656000: system.cpu.l1i.prefetcher: Spatial Region physical address:    0X22700
10656000: system.cpu.l1i.prefetcher: Spatial Region offset:       0X1C
10656000: system.cpu.l1i.prefetcher: PST address added: 0X21138001C
10724000: system.cpu.l1i.prefetcher: PC:   0X422740
10724000: system.cpu.l1i.prefetcher: Spatial Region address:       0X44
10724000: system.cpu.l1i.prefetcher: Spatial Region physical address:    0X22740
10724000: system.cpu.l1i.prefetcher: Spatial Region offset:       0X1D
10724000: system.cpu.l1i.prefetcher: PST address added: 0X2113A001D
10815000: system.cpu.l1d.prefetcher: PC:   0X402318
10815000: system.cpu.l1d.prefetcher: Spatial Region address:      0X17E
10815000: system.cpu.l1d.prefetcher: Spatial Region physical address:    0XBF038
10815000: system.cpu.l1d.prefetcher: Spatial Region offset:          0
10816000: system.cpu.l1d.prefetcher: PC:   0X402328
10816000: system.cpu.l1d.prefetcher: Spatial Region address:          0
10816000: system.cpu.l1d.prefetcher: Spatial Region physical address:      0X4C0
10816000: system.cpu.l1d.prefetcher: Spatial Region offset:       0X13
10816000: system.cpu.l1d.prefetcher: PST address added: 0X201194013
10916000: system.cpu.l1i.prefetcher: PC:   0X422840
10916000: system.cpu.l1i.prefetcher: Spatial Region address:       0X45
10916000: system.cpu.l1i.prefetcher: Spatial Region physical address:    0X22840
10916000: system.cpu.l1i.prefetcher: Spatial Region offset:        0X1
11013000: system.cpu.l1i.prefetcher: PC:   0X422440
11013000: system.cpu.l1i.prefetcher: Spatial Region address:       0X44
11013000: system.cpu.l1i.prefetcher: Spatial Region physical address:    0X22440
11013000: system.cpu.l1i.prefetcher: Spatial Region offset:       0X11
11013000: system.cpu.l1i.prefetcher: PST address added: 0X211220011
11154000: system.cpu.l1i.prefetcher: PC:   0X46E0A0
11154000: system.cpu.l1i.prefetcher: Spatial Region address:       0XDC
11154000: system.cpu.l1i.prefetcher: Spatial Region physical address:    0X6E080
11154000: system.cpu.l1i.prefetcher: Spatial Region offset:        0X2
11247000: system.cpu.l1d.prefetcher: PC:   0X402328
11247000: system.cpu.l1d.prefetcher: Spatial Region address:          0
11247000: system.cpu.l1d.prefetcher: Spatial Region physical address:      0X508
11247000: system.cpu.l1d.prefetcher: Spatial Region offset:       0X14
11247000: system.cpu.l1d.prefetcher: PST address added: 0X201194014
11248000: system.cpu.l1d.prefetcher: PC:   0X40232C
11248000: system.cpu.l1d.prefetcher: Spatial Region address:          0
11248000: system.cpu.l1d.prefetcher: Spatial Region physical address:      0X500
11248000: system.cpu.l1d.prefetcher: Spatial Region offset:       0X14
11248000: system.cpu.l1d.prefetcher: PST address added: 0X201196014
11372000: system.cpu.l1i.prefetcher: PC:   0X40244B
11372000: system.cpu.l1i.prefetcher: Spatial Region address:        0X4
11372000: system.cpu.l1i.prefetcher: Spatial Region physical address:     0X2440
11372000: system.cpu.l1i.prefetcher: Spatial Region offset:       0X11
11372000: system.cpu.l1i.prefetcher: PST address added: 0X201225811
11463000: system.cpu.l1i.prefetcher: PC:   0X402480
11463000: system.cpu.l1i.prefetcher: Spatial Region address:        0X4
11463000: system.cpu.l1i.prefetcher: Spatial Region physical address:     0X2480
11463000: system.cpu.l1i.prefetcher: Spatial Region offset:       0X12
11527000: system.cpu.l1i.prefetcher: PC:   0X402AA0
11527000: system.cpu.l1i.prefetcher: Spatial Region address:        0X5
11527000: system.cpu.l1i.prefetcher: Spatial Region physical address:     0X2A80
11527000: system.cpu.l1i.prefetcher: Spatial Region offset:        0XA
11527000: system.cpu.l1i.prefetcher: PST address added: 0X20155000A
11591000: system.cpu.l1i.prefetcher: PC:   0X402AC0
11591000: system.cpu.l1i.prefetcher: Spatial Region address:        0X5
11591000: system.cpu.l1i.prefetcher: Spatial Region physical address:     0X2AC0
11591000: system.cpu.l1i.prefetcher: Spatial Region offset:        0XB
11591000: system.cpu.l1i.prefetcher: PST address added: 0X20156000B
11616000: system.cpu.l1d.prefetcher: PC:   0X402AB9
11616000: system.cpu.l1d.prefetcher: Spatial Region address:      0X180
11616000: system.cpu.l1d.prefetcher: Spatial Region physical address:    0XC0180
11616000: system.cpu.l1d.prefetcher: Spatial Region offset:        0X6
11616000: system.cpu.l1d.prefetcher: PST address added: 0X20155C806
11655000: system.cpu.l1i.prefetcher: PC:   0X402B00
11655000: system.cpu.l1i.prefetcher: Spatial Region address:        0X5
11655000: system.cpu.l1i.prefetcher: Spatial Region physical address:     0X2B00
11655000: system.cpu.l1i.prefetcher: Spatial Region offset:        0XC
11655000: system.cpu.l1i.prefetcher: PST address added: 0X20158000C
11722000: system.cpu.l1i.prefetcher: PC:   0X402B40
11722000: system.cpu.l1i.prefetcher: Spatial Region address:        0X5
11722000: system.cpu.l1i.prefetcher: Spatial Region physical address:     0X2B40
11722000: system.cpu.l1i.prefetcher: Spatial Region offset:        0XD
11722000: system.cpu.l1i.prefetcher: PST address added: 0X2015A000D
11723000: system.cpu.l1d.prefetcher: PC:   0X402AFD
11723000: system.cpu.l1d.prefetcher: Spatial Region address:          0
11723000: system.cpu.l1d.prefetcher: Spatial Region physical address:       0X40
11723000: system.cpu.l1d.prefetcher: Spatial Region offset:        0X1
11723000: system.cpu.l1d.prefetcher: PST address added: 0X20157E801
11786000: system.cpu.l1i.prefetcher: PC:   0X402B80
11786000: system.cpu.l1i.prefetcher: Spatial Region address:        0X5
11786000: system.cpu.l1i.prefetcher: Spatial Region physical address:     0X2B80
11786000: system.cpu.l1i.prefetcher: Spatial Region offset:        0XE
11786000: system.cpu.l1i.prefetcher: PST address added: 0X2015C000E
11862000: system.cpu.l1d.prefetcher: PC:   0X402B02
11862000: system.cpu.l1d.prefetcher: Spatial Region address:          0
11862000: system.cpu.l1d.prefetcher: Spatial Region physical address:       0XA8
11862000: system.cpu.l1d.prefetcher: Spatial Region offset:        0X2
11863000: system.cpu.l1d.prefetcher: PC:   0X402B06
11863000: system.cpu.l1d.prefetcher: Spatial Region address:          0
11863000: system.cpu.l1d.prefetcher: Spatial Region physical address:       0XA0
11863000: system.cpu.l1d.prefetcher: Spatial Region offset:        0X2
11863000: system.cpu.l1d.prefetcher: PST address added: 0X201583002
11864000: system.cpu.l1i.prefetcher: PC:   0X402BC0
11864000: system.cpu.l1i.prefetcher: Spatial Region address:        0X5
11864000: system.cpu.l1i.prefetcher: Spatial Region physical address:     0X2BC0
11864000: system.cpu.l1i.prefetcher: Spatial Region offset:        0XF
11864000: system.cpu.l1i.prefetcher: PST address added: 0X2015E000F
11942000: system.cpu.l1d.prefetcher: PC:   0X402B02
11942000: system.cpu.l1d.prefetcher: Spatial Region address:          0
11942000: system.cpu.l1d.prefetcher: Spatial Region physical address:       0XE0
11942000: system.cpu.l1d.prefetcher: Spatial Region offset:        0X3
11942000: system.cpu.l1d.prefetcher: PST address added: 0X201581003
11943000: system.cpu.l1d.prefetcher: PC:   0X402B06
11943000: system.cpu.l1d.prefetcher: Spatial Region address:          0
11943000: system.cpu.l1d.prefetcher: Spatial Region physical address:       0XD8
11943000: system.cpu.l1d.prefetcher: Spatial Region offset:        0X3
11943000: system.cpu.l1d.prefetcher: PST address added: 0X201583003
12013000: system.cpu.l1d.prefetcher: PC:   0X402B02
12013000: system.cpu.l1d.prefetcher: Spatial Region address:          0
12013000: system.cpu.l1d.prefetcher: Spatial Region physical address:      0X118
12013000: system.cpu.l1d.prefetcher: Spatial Region offset:        0X4
12013000: system.cpu.l1d.prefetcher: PST address added: 0X201581004
12014000: system.cpu.l1d.prefetcher: PC:   0X402B06
12014000: system.cpu.l1d.prefetcher: Spatial Region address:          0
12014000: system.cpu.l1d.prefetcher: Spatial Region physical address:      0X110
12014000: system.cpu.l1d.prefetcher: Spatial Region offset:        0X4
12014000: system.cpu.l1d.prefetcher: PST address added: 0X201583004
12084000: system.cpu.l1d.prefetcher: PC:   0X402B02
12084000: system.cpu.l1d.prefetcher: Spatial Region address:          0
12084000: system.cpu.l1d.prefetcher: Spatial Region physical address:      0X150
12084000: system.cpu.l1d.prefetcher: Spatial Region offset:        0X5
12084000: system.cpu.l1d.prefetcher: PST address added: 0X201581005
12085000: system.cpu.l1d.prefetcher: PC:   0X402B06
12085000: system.cpu.l1d.prefetcher: Spatial Region address:          0
12085000: system.cpu.l1d.prefetcher: Spatial Region physical address:      0X148
12085000: system.cpu.l1d.prefetcher: Spatial Region offset:        0X5
12085000: system.cpu.l1d.prefetcher: PST address added: 0X201583005
12155000: system.cpu.l1d.prefetcher: PC:   0X402B02
12155000: system.cpu.l1d.prefetcher: Spatial Region address:          0
12155000: system.cpu.l1d.prefetcher: Spatial Region physical address:      0X188
12155000: system.cpu.l1d.prefetcher: Spatial Region offset:        0X6
12155000: system.cpu.l1d.prefetcher: PST address added: 0X201581006
12156000: system.cpu.l1d.prefetcher: PC:   0X402B06
12156000: system.cpu.l1d.prefetcher: Spatial Region address:          0
12156000: system.cpu.l1d.prefetcher: Spatial Region physical address:      0X180
12156000: system.cpu.l1d.prefetcher: Spatial Region offset:        0X6
12226000: system.cpu.l1d.prefetcher: PC:   0X402B02
12226000: system.cpu.l1d.prefetcher: Spatial Region address:          0
12226000: system.cpu.l1d.prefetcher: Spatial Region physical address:      0X1C0
12226000: system.cpu.l1d.prefetcher: Spatial Region offset:        0X7
12293000: system.cpu.l1d.prefetcher: PC:   0X402B24
12293000: system.cpu.l1d.prefetcher: Spatial Region address:      0X180
12293000: system.cpu.l1d.prefetcher: Spatial Region physical address:    0XC0220
12293000: system.cpu.l1d.prefetcher: Spatial Region offset:        0X8
12293000: system.cpu.l1d.prefetcher: PST address added: 0X201592008
12456000: system.cpu.l1i.prefetcher: PC:   0X402C00
12456000: system.cpu.l1i.prefetcher: Spatial Region address:        0X5
12456000: system.cpu.l1i.prefetcher: Spatial Region physical address:     0X2C00
12456000: system.cpu.l1i.prefetcher: Spatial Region offset:       0X10
12456000: system.cpu.l1i.prefetcher: PST address added: 0X201600010
12520000: system.cpu.l1i.prefetcher: PC:   0X449210
12520000: system.cpu.l1i.prefetcher: Spatial Region address:       0X92
12520000: system.cpu.l1i.prefetcher: Spatial Region physical address:    0X49200
12520000: system.cpu.l1i.prefetcher: Spatial Region offset:        0X8
12520000: system.cpu.l1i.prefetcher: PST address added: 0X224908008
12597000: system.cpu.l1i.prefetcher: PC:   0X449240
12597000: system.cpu.l1i.prefetcher: Spatial Region address:       0X92
12597000: system.cpu.l1i.prefetcher: Spatial Region physical address:    0X49240
12597000: system.cpu.l1i.prefetcher: Spatial Region offset:        0X9
12597000: system.cpu.l1i.prefetcher: PST address added: 0X224920009
12608000: system.cpu.l1d.prefetcher: PC:   0X44921E
12608000: system.cpu.l1d.prefetcher: Spatial Region address:      0X183
12608000: system.cpu.l1d.prefetcher: Spatial Region physical address:    0XC1F38
12608000: system.cpu.l1d.prefetcher: Spatial Region offset:       0X1C
12608000: system.cpu.l1d.prefetcher: PST address added: 0X22490F01C
12661000: system.cpu.l1i.prefetcher: PC:   0X449280
12661000: system.cpu.l1i.prefetcher: Spatial Region address:       0X92
12661000: system.cpu.l1i.prefetcher: Spatial Region physical address:    0X49280
12661000: system.cpu.l1i.prefetcher: Spatial Region offset:        0XA
12661000: system.cpu.l1i.prefetcher: PST address added: 0X22494000A
12729000: system.cpu.l1i.prefetcher: PC:   0X4492C0
12729000: system.cpu.l1i.prefetcher: Spatial Region address:       0X92
12729000: system.cpu.l1i.prefetcher: Spatial Region physical address:    0X492C0
12729000: system.cpu.l1i.prefetcher: Spatial Region offset:        0XB
12729000: system.cpu.l1i.prefetcher: PST address added: 0X22496000B
12793000: system.cpu.l1i.prefetcher: PC:   0X471510
12793000: system.cpu.l1i.prefetcher: Spatial Region address:       0XE2
12793000: system.cpu.l1i.prefetcher: Spatial Region physical address:    0X71500
12793000: system.cpu.l1i.prefetcher: Spatial Region offset:       0X14
12793000: system.cpu.l1i.prefetcher: PST address added: 0X238A88014
12857000: system.cpu.l1i.prefetcher: PC:   0X471540
12857000: system.cpu.l1i.prefetcher: Spatial Region address:       0XE2
12857000: system.cpu.l1i.prefetcher: Spatial Region physical address:    0X71540
12857000: system.cpu.l1i.prefetcher: Spatial Region offset:       0X15
12857000: system.cpu.l1i.prefetcher: PST address added: 0X238AA0015
12925000: system.cpu.l1i.prefetcher: PC:   0X471580
12925000: system.cpu.l1i.prefetcher: Spatial Region address:       0XE2
12925000: system.cpu.l1i.prefetcher: Spatial Region physical address:    0X71580
12925000: system.cpu.l1i.prefetcher: Spatial Region offset:       0X16
12925000: system.cpu.l1i.prefetcher: PST address added: 0X238AC0016
12999000: system.cpu.l1i.prefetcher: PC:   0X449300
12999000: system.cpu.l1i.prefetcher: Spatial Region address:       0X92
12999000: system.cpu.l1i.prefetcher: Spatial Region physical address:    0X49300
12999000: system.cpu.l1i.prefetcher: Spatial Region offset:        0XC
12999000: system.cpu.l1i.prefetcher: PST address added: 0X22498000C
13114000: system.cpu.l1i.prefetcher: PC:   0X4715C0
13114000: system.cpu.l1i.prefetcher: Spatial Region address:       0XE2
13114000: system.cpu.l1i.prefetcher: Spatial Region physical address:    0X715C0
13114000: system.cpu.l1i.prefetcher: Spatial Region offset:       0X17
13114000: system.cpu.l1i.prefetcher: PST address added: 0X238AE0017
13187000: system.cpu.l1i.prefetcher: PC:   0X449340
13187000: system.cpu.l1i.prefetcher: Spatial Region address:       0X92
13187000: system.cpu.l1i.prefetcher: Spatial Region physical address:    0X49340
13187000: system.cpu.l1i.prefetcher: Spatial Region offset:        0XD
13187000: system.cpu.l1i.prefetcher: PST address added: 0X2249A000D
13260000: system.cpu.l1d.prefetcher: PC:   0X402B60
13260000: system.cpu.l1d.prefetcher: Spatial Region address:      0X184
13260000: system.cpu.l1d.prefetcher: Spatial Region physical address:    0XC2320
13260000: system.cpu.l1d.prefetcher: Spatial Region offset:        0XC
13260000: system.cpu.l1d.prefetcher: PST address added: 0X2015B000C
13314000: system.cpu.l1i.prefetcher: PC:   0X402C40
13314000: system.cpu.l1i.prefetcher: Spatial Region address:        0X5
13314000: system.cpu.l1i.prefetcher: Spatial Region physical address:     0X2C40
13314000: system.cpu.l1i.prefetcher: Spatial Region offset:       0X11
13314000: system.cpu.l1i.prefetcher: PST address added: 0X201620011
13341000: system.cpu.l1d.prefetcher: PC:   0X402BB2
13341000: system.cpu.l1d.prefetcher: Spatial Region address:      0X180
13341000: system.cpu.l1d.prefetcher: Spatial Region physical address:    0XC0670
13341000: system.cpu.l1d.prefetcher: Spatial Region offset:       0X19
13341000: system.cpu.l1d.prefetcher: PST address added: 0X2015D9019
13349000: system.cpu.l1d.prefetcher: PC:   0X402BB9
13349000: system.cpu.l1d.prefetcher: Spatial Region address:      0X184
13349000: system.cpu.l1d.prefetcher: Spatial Region physical address:    0XC2340
13349000: system.cpu.l1d.prefetcher: Spatial Region offset:        0XD
13349000: system.cpu.l1d.prefetcher: PST address added: 0X2015DC80D
13405000: system.cpu.l1i.prefetcher: PC:   0X401060
13405000: system.cpu.l1i.prefetcher: Spatial Region address:        0X2
13405000: system.cpu.l1i.prefetcher: Spatial Region physical address:     0X1040
13405000: system.cpu.l1i.prefetcher: Spatial Region offset:        0X1
13405000: system.cpu.l1i.prefetcher: PST address added: 0X200830001
13406000: system.cpu.l1d.prefetcher: PC:   0X402BC0
13406000: system.cpu.l1d.prefetcher: Spatial Region address:      0X184
13406000: system.cpu.l1d.prefetcher: Spatial Region physical address:    0XC2348
13406000: system.cpu.l1d.prefetcher: Spatial Region offset:        0XD
13406000: system.cpu.l1d.prefetcher: PST address added: 0X2015E000D
13496000: system.cpu.l1i.prefetcher: PC:   0X401080
13496000: system.cpu.l1i.prefetcher: Spatial Region address:        0X2
13496000: system.cpu.l1i.prefetcher: Spatial Region physical address:     0X1080
13496000: system.cpu.l1i.prefetcher: Spatial Region offset:        0X2
13560000: system.cpu.l1i.prefetcher: PC:   0X445A20
13560000: system.cpu.l1i.prefetcher: Spatial Region address:       0X8B
13560000: system.cpu.l1i.prefetcher: Spatial Region physical address:    0X45A00
13560000: system.cpu.l1i.prefetcher: Spatial Region offset:        0X8
13560000: system.cpu.l1i.prefetcher: PST address added: 0X222D10008
13651000: system.cpu.l1i.prefetcher: PC:   0X445A40
13651000: system.cpu.l1i.prefetcher: Spatial Region address:       0X8B
13651000: system.cpu.l1i.prefetcher: Spatial Region physical address:    0X45A40
13651000: system.cpu.l1i.prefetcher: Spatial Region offset:        0X9
13651000: system.cpu.l1i.prefetcher: PST address added: 0X222D20009
13660000: system.cpu.l1d.prefetcher: PC:   0X445A3B
13660000: system.cpu.l1d.prefetcher: Spatial Region address:      0X178
13660000: system.cpu.l1d.prefetcher: Spatial Region physical address:    0XBC0C0
13660000: system.cpu.l1d.prefetcher: Spatial Region offset:        0X3
13660000: system.cpu.l1d.prefetcher: PST address added: 0X222D1D803
13661000: system.cpu.l1d.prefetcher: PC:   0X445A3B
13661000: system.cpu.l1d.prefetcher: Spatial Region address:      0X178
13661000: system.cpu.l1d.prefetcher: Spatial Region physical address:    0XBC0C8
13661000: system.cpu.l1d.prefetcher: Spatial Region offset:        0X3
13661000: system.cpu.l1d.prefetcher: PST address added: 0X222D1D803
13715000: system.cpu.l1i.prefetcher: PC:   0X445A80
13715000: system.cpu.l1i.prefetcher: Spatial Region address:       0X8B
13715000: system.cpu.l1i.prefetcher: Spatial Region physical address:    0X45A80
13715000: system.cpu.l1i.prefetcher: Spatial Region offset:        0XA
13715000: system.cpu.l1i.prefetcher: PST address added: 0X222D4000A
13784000: system.cpu.l1i.prefetcher: PC:   0X445AC0
13784000: system.cpu.l1i.prefetcher: Spatial Region address:       0X8B
13784000: system.cpu.l1i.prefetcher: Spatial Region physical address:    0X45AC0
13784000: system.cpu.l1i.prefetcher: Spatial Region offset:        0XB
13784000: system.cpu.l1i.prefetcher: PST address added: 0X222D6000B
13785000: system.cpu.l1d.prefetcher: PC:   0X445A43
13785000: system.cpu.l1d.prefetcher: Spatial Region address:      0X18B
13785000: system.cpu.l1d.prefetcher: Spatial Region physical address:    0XC5820
13785000: system.cpu.l1d.prefetcher: Spatial Region offset:          0
13785000: system.cpu.l1d.prefetcher: PST address added: 0X222D21800
13786000: system.cpu.l1d.prefetcher: PC:   0X445A43
13786000: system.cpu.l1d.prefetcher: Spatial Region address:      0X18B
13786000: system.cpu.l1d.prefetcher: Spatial Region physical address:    0XC5828
13786000: system.cpu.l1d.prefetcher: Spatial Region offset:          0
13786000: system.cpu.l1d.prefetcher: PST address added: 0X222D21800
13894000: system.cpu.l1i.prefetcher: PC:   0X402C80
13894000: system.cpu.l1i.prefetcher: Spatial Region address:        0X5
13894000: system.cpu.l1i.prefetcher: Spatial Region physical address:     0X2C80
13894000: system.cpu.l1i.prefetcher: Spatial Region offset:       0X12
13894000: system.cpu.l1i.prefetcher: PST address added: 0X201640012
13897000: system.cpu.l1d.prefetcher: PC:   0X402BE5
13897000: system.cpu.l1d.prefetcher: Spatial Region address:      0X18B
13897000: system.cpu.l1d.prefetcher: Spatial Region physical address:    0XC5888
13897000: system.cpu.l1d.prefetcher: Spatial Region offset:        0X2
13900000: system.cpu.l1d.prefetcher: PC:   0X402BEE
13900000: system.cpu.l1d.prefetcher: Spatial Region address:      0X18B
13900000: system.cpu.l1d.prefetcher: Spatial Region physical address:    0XC5880
13900000: system.cpu.l1d.prefetcher: Spatial Region offset:        0X2
13900000: system.cpu.l1d.prefetcher: PST address added: 0X2015F7002
13994000: system.cpu.l1i.prefetcher: PC:   0X402CC0
13994000: system.cpu.l1i.prefetcher: Spatial Region address:        0X5
13994000: system.cpu.l1i.prefetcher: Spatial Region physical address:     0X2CC0
13994000: system.cpu.l1i.prefetcher: Spatial Region offset:       0X13
13994000: system.cpu.l1i.prefetcher: PST address added: 0X201660013
14072000: system.cpu.l1d.prefetcher: PC:   0X402C24
14072000: system.cpu.l1d.prefetcher: Spatial Region address:      0X184
14072000: system.cpu.l1d.prefetcher: Spatial Region physical address:    0XC2720
14072000: system.cpu.l1d.prefetcher: Spatial Region offset:       0X1C
14072000: system.cpu.l1d.prefetcher: PST address added: 0X20161201C
14081000: system.cpu.l1d.prefetcher: PC:   0X402C4F
14081000: system.cpu.l1d.prefetcher: Spatial Region address:      0X182
14081000: system.cpu.l1d.prefetcher: Spatial Region physical address:    0XC12B8
14081000: system.cpu.l1d.prefetcher: Spatial Region offset:        0XA
14081000: system.cpu.l1d.prefetcher: PST address added: 0X20162780A
14081000: system.cpu.l1i.prefetcher: PC:   0X402D00
14081000: system.cpu.l1i.prefetcher: Spatial Region address:        0X5
14081000: system.cpu.l1i.prefetcher: Spatial Region physical address:     0X2D00
14081000: system.cpu.l1i.prefetcher: Spatial Region offset:       0X14
14081000: system.cpu.l1i.prefetcher: PST address added: 0X201680014
14165000: system.cpu.l1d.prefetcher: PC:   0X402C75
14165000: system.cpu.l1d.prefetcher: Spatial Region address:      0X182
14165000: system.cpu.l1d.prefetcher: Spatial Region physical address:    0XC1290
14165000: system.cpu.l1d.prefetcher: Spatial Region offset:        0XA
14165000: system.cpu.l1d.prefetcher: PST address added: 0X20163A80A
14214000: system.cpu.l1i.prefetcher: PC:   0X402D40
14214000: system.cpu.l1i.prefetcher: Spatial Region address:        0X5
14214000: system.cpu.l1i.prefetcher: Spatial Region physical address:     0X2D40
14214000: system.cpu.l1i.prefetcher: Spatial Region offset:       0X15
14214000: system.cpu.l1i.prefetcher: PST address added: 0X2016A0015
14282000: system.cpu.l1i.prefetcher: PC:   0X4024C0
14282000: system.cpu.l1i.prefetcher: Spatial Region address:        0X4
14282000: system.cpu.l1i.prefetcher: Spatial Region physical address:     0X24C0
14282000: system.cpu.l1i.prefetcher: Spatial Region offset:       0X13
14288000: system.cpu.l1d.prefetcher: PC:   0X402456
14288000: system.cpu.l1d.prefetcher: Spatial Region address:      0X18B
14288000: system.cpu.l1d.prefetcher: Spatial Region physical address:    0XC58C8
14288000: system.cpu.l1d.prefetcher: Spatial Region offset:        0X3
14288000: system.cpu.l1d.prefetcher: PST address added: 0X20122B003
14346000: system.cpu.l1i.prefetcher: PC:   0X4026CE
14346000: system.cpu.l1i.prefetcher: Spatial Region address:        0X4
14346000: system.cpu.l1i.prefetcher: Spatial Region physical address:     0X26C0
14346000: system.cpu.l1i.prefetcher: Spatial Region offset:       0X1B
14346000: system.cpu.l1i.prefetcher: PST address added: 0X20136701B
14410000: system.cpu.l1i.prefetcher: PC:   0X402700
14410000: system.cpu.l1i.prefetcher: Spatial Region address:        0X4
14410000: system.cpu.l1i.prefetcher: Spatial Region physical address:     0X2700
14410000: system.cpu.l1i.prefetcher: Spatial Region offset:       0X1C
14410000: system.cpu.l1i.prefetcher: PST address added: 0X20138001C
14474000: system.cpu.l1i.prefetcher: PC:   0X44E2F0
14474000: system.cpu.l1i.prefetcher: Spatial Region address:       0X9C
14474000: system.cpu.l1i.prefetcher: Spatial Region physical address:    0X4E2C0
14474000: system.cpu.l1i.prefetcher: Spatial Region offset:        0XB
14474000: system.cpu.l1i.prefetcher: PST address added: 0X22717800B
14565000: system.cpu.l1i.prefetcher: PC:   0X44E300
14565000: system.cpu.l1i.prefetcher: Spatial Region address:       0X9C
14565000: system.cpu.l1i.prefetcher: Spatial Region physical address:    0X4E300
14565000: system.cpu.l1i.prefetcher: Spatial Region offset:        0XC
14565000: system.cpu.l1i.prefetcher: PST address added: 0X22718000C
14629000: system.cpu.l1i.prefetcher: PC:   0X44E340
14629000: system.cpu.l1i.prefetcher: Spatial Region address:       0X9C
14629000: system.cpu.l1i.prefetcher: Spatial Region physical address:    0X4E340
14629000: system.cpu.l1i.prefetcher: Spatial Region offset:        0XD
14629000: system.cpu.l1i.prefetcher: PST address added: 0X2271A000D
14636000: system.cpu.l1d.prefetcher: PC:   0X44E304
14636000: system.cpu.l1d.prefetcher: Spatial Region address:      0X187
14636000: system.cpu.l1d.prefetcher: Spatial Region physical address:    0XC3B28
14636000: system.cpu.l1d.prefetcher: Spatial Region offset:        0XC
14636000: system.cpu.l1d.prefetcher: PST address added: 0X22718200C
14693000: system.cpu.l1i.prefetcher: PC:   0X4712C0
14693000: system.cpu.l1i.prefetcher: Spatial Region address:       0XE2
14693000: system.cpu.l1i.prefetcher: Spatial Region physical address:    0X712C0
14693000: system.cpu.l1i.prefetcher: Spatial Region offset:        0XB
14693000: system.cpu.l1i.prefetcher: PST address added: 0X23896000B
14757000: system.cpu.l1i.prefetcher: PC:   0X471300
14757000: system.cpu.l1i.prefetcher: Spatial Region address:       0XE2
14757000: system.cpu.l1i.prefetcher: Spatial Region physical address:    0X71300
14757000: system.cpu.l1i.prefetcher: Spatial Region offset:        0XC
14826000: system.cpu.l1i.prefetcher: PC:   0X471340
14826000: system.cpu.l1i.prefetcher: Spatial Region address:       0XE2
14826000: system.cpu.l1i.prefetcher: Spatial Region physical address:    0X71340
14826000: system.cpu.l1i.prefetcher: Spatial Region offset:        0XD
14895000: system.cpu.l1i.prefetcher: PC:   0X44E380
14895000: system.cpu.l1i.prefetcher: Spatial Region address:       0X9C
14895000: system.cpu.l1i.prefetcher: Spatial Region physical address:    0X4E380
14895000: system.cpu.l1i.prefetcher: Spatial Region offset:        0XE
14895000: system.cpu.l1i.prefetcher: PST address added: 0X2271C000E
14898000: system.cpu.l1d.prefetcher: PC:   0X44E31E
14898000: system.cpu.l1d.prefetcher: Spatial Region address:      0X187
14898000: system.cpu.l1d.prefetcher: Spatial Region physical address:    0XC3BF2
14898000: system.cpu.l1d.prefetcher: Spatial Region offset:        0XF
14965000: system.cpu.l1i.prefetcher: PC:   0X44E3C0
14965000: system.cpu.l1i.prefetcher: Spatial Region address:       0X9C
14965000: system.cpu.l1i.prefetcher: Spatial Region physical address:    0X4E3C0
14965000: system.cpu.l1i.prefetcher: Spatial Region offset:        0XF
14965000: system.cpu.l1i.prefetcher: PST address added: 0X2271E000F
15133000: system.cpu.l1i.prefetcher: PC:   0X44E400
15133000: system.cpu.l1i.prefetcher: Spatial Region address:       0X9C
15133000: system.cpu.l1i.prefetcher: Spatial Region physical address:    0X4E400
15133000: system.cpu.l1i.prefetcher: Spatial Region offset:       0X10
15133000: system.cpu.l1i.prefetcher: PST address added: 0X227200010
15223000: system.cpu.l1i.prefetcher: PC:   0X402740
15223000: system.cpu.l1i.prefetcher: Spatial Region address:        0X4
15223000: system.cpu.l1i.prefetcher: Spatial Region physical address:     0X2740
15223000: system.cpu.l1i.prefetcher: Spatial Region offset:       0X1D
15223000: system.cpu.l1i.prefetcher: PST address added: 0X2013A001D
15320000: system.cpu.l1i.prefetcher: PC:   0X402500
15320000: system.cpu.l1i.prefetcher: Spatial Region address:        0X4
15320000: system.cpu.l1i.prefetcher: Spatial Region physical address:     0X2500
[...]
166895000: system.cpu.l1i.prefetcher: PST address added: 0X207FA001D
166967000: system.cpu.l1i.prefetcher: PC:   0X40FF80
166967000: system.cpu.l1i.prefetcher: Spatial Region address:       0X1F
166967000: system.cpu.l1i.prefetcher: Spatial Region physical address:     0XFF80
166967000: system.cpu.l1i.prefetcher: Spatial Region offset:       0X1E
166967000: system.cpu.l1i.prefetcher: PST address added: 0X207FC001E
167046000: system.cpu.l1i.prefetcher: PC:   0X402E80
167046000: system.cpu.l1i.prefetcher: Spatial Region address:        0X5
167046000: system.cpu.l1i.prefetcher: Spatial Region physical address:     0X2E80
167046000: system.cpu.l1i.prefetcher: Spatial Region offset:       0X1A
167046000: system.cpu.l1i.prefetcher: PST address added: 0X20174001A
167123000: system.cpu.l1i.prefetcher: PC:   0X4016E0
167123000: system.cpu.l1i.prefetcher: Spatial Region address:        0X2
167123000: system.cpu.l1i.prefetcher: Spatial Region physical address:     0X16C0
167123000: system.cpu.l1i.prefetcher: Spatial Region offset:       0X1B
167123000: system.cpu.l1i.prefetcher: PST address added: 0X200B7001B
167205000: system.cpu.l1d.prefetcher: PC:   0X4016E4
167205000: system.cpu.l1d.prefetcher: Spatial Region address:      0X183
167205000: system.cpu.l1d.prefetcher: Spatial Region physical address:    0XC1FF8
167205000: system.cpu.l1d.prefetcher: Spatial Region offset:       0X1F
167205000: system.cpu.l1d.prefetcher: PST address added: 0X200B7201F
167358000: system.cpu.l1i.prefetcher: PC:   0X401C20
167358000: system.cpu.l1i.prefetcher: Spatial Region address:        0X3
167358000: system.cpu.l1i.prefetcher: Spatial Region physical address:     0X1C00
167358000: system.cpu.l1i.prefetcher: Spatial Region offset:       0X10
167412000: system.cpu.l1i.prefetcher: PC:   0X4920B0
167412000: system.cpu.l1i.prefetcher: Spatial Region address:      0X124
167412000: system.cpu.l1i.prefetcher: Spatial Region physical address:    0X92080
167412000: system.cpu.l1i.prefetcher: Spatial Region offset:        0X2
167412000: system.cpu.l1i.prefetcher: PST address added: 0X249058002
167489000: system.cpu.l1i.prefetcher: PC:   0X4920C0
167489000: system.cpu.l1i.prefetcher: Spatial Region address:      0X124
167489000: system.cpu.l1i.prefetcher: Spatial Region physical address:    0X920C0
167489000: system.cpu.l1i.prefetcher: Spatial Region offset:        0X3
167489000: system.cpu.l1i.prefetcher: PST address added: 0X249060003
167553000: system.cpu.l1i.prefetcher: PC:   0X491F80
167553000: system.cpu.l1i.prefetcher: Spatial Region address:      0X123
167553000: system.cpu.l1i.prefetcher: Spatial Region physical address:    0X91F80
167553000: system.cpu.l1i.prefetcher: Spatial Region offset:       0X1E
167553000: system.cpu.l1i.prefetcher: PST address added: 0X248FC001E
167630000: system.cpu.l1i.prefetcher: PC:   0X491FC0
167630000: system.cpu.l1i.prefetcher: Spatial Region address:      0X123
167630000: system.cpu.l1i.prefetcher: Spatial Region physical address:    0X91FC0
167630000: system.cpu.l1i.prefetcher: Spatial Region offset:       0X1F
167630000: system.cpu.l1i.prefetcher: PST address added: 0X248FE001F
167698000: system.cpu.l1i.prefetcher: PC:   0X492000
167698000: system.cpu.l1i.prefetcher: Spatial Region address:      0X124
167698000: system.cpu.l1i.prefetcher: Spatial Region physical address:    0X92000
167698000: system.cpu.l1i.prefetcher: Spatial Region offset:          0
167698000: system.cpu.l1i.prefetcher: PST address added: 0X249000000
167766000: system.cpu.l1i.prefetcher: PC:   0X492040
167766000: system.cpu.l1i.prefetcher: Spatial Region address:      0X124
167766000: system.cpu.l1i.prefetcher: Spatial Region physical address:    0X92040
167766000: system.cpu.l1i.prefetcher: Spatial Region offset:        0X1
167885000: system.cpu.l1i.prefetcher: PC:   0X402EC0
167885000: system.cpu.l1i.prefetcher: Spatial Region address:        0X5
167885000: system.cpu.l1i.prefetcher: Spatial Region physical address:     0X2EC0
167885000: system.cpu.l1i.prefetcher: Spatial Region offset:       0X1B
167885000: system.cpu.l1i.prefetcher: PST address added: 0X20176001B
167949000: system.cpu.l1i.prefetcher: PC:   0X494550
167949000: system.cpu.l1i.prefetcher: Spatial Region address:      0X128
167949000: system.cpu.l1i.prefetcher: Spatial Region physical address:    0X94540
167949000: system.cpu.l1i.prefetcher: Spatial Region offset:       0X15
167949000: system.cpu.l1i.prefetcher: PST address added: 0X24A2A8015
168026000: system.cpu.l1i.prefetcher: PC:   0X494580
168026000: system.cpu.l1i.prefetcher: Spatial Region address:      0X128
168026000: system.cpu.l1i.prefetcher: Spatial Region physical address:    0X94580
168026000: system.cpu.l1i.prefetcher: Spatial Region offset:       0X16
168026000: system.cpu.l1i.prefetcher: PST address added: 0X24A2C0016
168094000: system.cpu.l1i.prefetcher: PC:   0X40FFC0
168094000: system.cpu.l1i.prefetcher: Spatial Region address:       0X1F
168094000: system.cpu.l1i.prefetcher: Spatial Region physical address:     0XFFC0
168094000: system.cpu.l1i.prefetcher: Spatial Region offset:       0X1F
168094000: system.cpu.l1i.prefetcher: PST address added: 0X207FE001F
168188000: system.cpu.l1i.prefetcher: PC:   0X410000
168188000: system.cpu.l1i.prefetcher: Spatial Region address:       0X20
168188000: system.cpu.l1i.prefetcher: Spatial Region physical address:    0X10000
168188000: system.cpu.l1i.prefetcher: Spatial Region offset:          0
168188000: system.cpu.l1i.prefetcher: PST address added: 0X208000000
168281000: system.cpu.l1i.prefetcher: PC:   0X410040
168281000: system.cpu.l1i.prefetcher: Spatial Region address:       0X20
168281000: system.cpu.l1i.prefetcher: Spatial Region physical address:    0X10040
168281000: system.cpu.l1i.prefetcher: Spatial Region offset:        0X1
168372000: system.cpu.l1i.prefetcher: PC:   0X410080
168372000: system.cpu.l1i.prefetcher: Spatial Region address:       0X20
168372000: system.cpu.l1i.prefetcher: Spatial Region physical address:    0X10080
168372000: system.cpu.l1i.prefetcher: Spatial Region offset:        0X2
168396000: system.cpu.l1d.prefetcher: PC:   0X410068
168396000: system.cpu.l1d.prefetcher: Spatial Region address:      0X182
168396000: system.cpu.l1d.prefetcher: Spatial Region physical address:    0XC1228
168396000: system.cpu.l1d.prefetcher: Spatial Region offset:        0X8
168396000: system.cpu.l1d.prefetcher: PST address added: 0X208034008
168436000: system.cpu.l1i.prefetcher: PC:   0X4100C0
168436000: system.cpu.l1i.prefetcher: Spatial Region address:       0X20
168436000: system.cpu.l1i.prefetcher: Spatial Region physical address:    0X100C0
168436000: system.cpu.l1i.prefetcher: Spatial Region offset:        0X3
168500000: system.cpu.l1i.prefetcher: PC:   0X418860
168500000: system.cpu.l1i.prefetcher: Spatial Region address:       0X31
168500000: system.cpu.l1i.prefetcher: Spatial Region physical address:    0X18840
168500000: system.cpu.l1i.prefetcher: Spatial Region offset:        0X1
168500000: system.cpu.l1i.prefetcher: PST address added: 0X20C430001
168577000: system.cpu.l1i.prefetcher: PC:   0X418880
168577000: system.cpu.l1i.prefetcher: Spatial Region address:       0X31
168577000: system.cpu.l1i.prefetcher: Spatial Region physical address:    0X18880
168577000: system.cpu.l1i.prefetcher: Spatial Region offset:        0X2
168641000: system.cpu.l1i.prefetcher: PC:   0X4188C0
168641000: system.cpu.l1i.prefetcher: Spatial Region address:       0X31
168641000: system.cpu.l1i.prefetcher: Spatial Region physical address:    0X188C0
168641000: system.cpu.l1i.prefetcher: Spatial Region offset:        0X3
168705000: system.cpu.l1i.prefetcher: PC:   0X418560
168705000: system.cpu.l1i.prefetcher: Spatial Region address:       0X30
168705000: system.cpu.l1i.prefetcher: Spatial Region physical address:    0X18540
168705000: system.cpu.l1i.prefetcher: Spatial Region offset:       0X15
168705000: system.cpu.l1i.prefetcher: PST address added: 0X20C2B0015
168769000: system.cpu.l1i.prefetcher: PC:   0X418580
168769000: system.cpu.l1i.prefetcher: Spatial Region address:       0X30
168769000: system.cpu.l1i.prefetcher: Spatial Region physical address:    0X18580
168769000: system.cpu.l1i.prefetcher: Spatial Region offset:       0X16
168769000: system.cpu.l1i.prefetcher: PST address added: 0X20C2C0016
168833000: system.cpu.l1i.prefetcher: PC:   0X4185C0
168833000: system.cpu.l1i.prefetcher: Spatial Region address:       0X30
168833000: system.cpu.l1i.prefetcher: Spatial Region physical address:    0X185C0
168833000: system.cpu.l1i.prefetcher: Spatial Region offset:       0X17
168833000: system.cpu.l1i.prefetcher: PST address added: 0X20C2E0017
168897000: system.cpu.l1i.prefetcher: PC:   0X418790
168897000: system.cpu.l1i.prefetcher: Spatial Region address:       0X30
168897000: system.cpu.l1i.prefetcher: Spatial Region physical address:    0X18780
168897000: system.cpu.l1i.prefetcher: Spatial Region offset:       0X1E
168897000: system.cpu.l1i.prefetcher: PST address added: 0X20C3C801E
168961000: system.cpu.l1i.prefetcher: PC:   0X4187C0
168961000: system.cpu.l1i.prefetcher: Spatial Region address:       0X30
168961000: system.cpu.l1i.prefetcher: Spatial Region physical address:    0X187C0
168961000: system.cpu.l1i.prefetcher: Spatial Region offset:       0X1F
168961000: system.cpu.l1i.prefetcher: PST address added: 0X20C3E001F
169029000: system.cpu.l1i.prefetcher: PC:   0X418600
169029000: system.cpu.l1i.prefetcher: Spatial Region address:       0X30
169029000: system.cpu.l1i.prefetcher: Spatial Region physical address:    0X18600
169029000: system.cpu.l1i.prefetcher: Spatial Region offset:       0X18
169029000: system.cpu.l1i.prefetcher: PST address added: 0X20C300018
169033000: system.cpu.l1d.prefetcher: PC:   0X4185AE
169033000: system.cpu.l1d.prefetcher: Spatial Region address:      0X183
169033000: system.cpu.l1d.prefetcher: Spatial Region physical address:    0XC1C58
169033000: system.cpu.l1d.prefetcher: Spatial Region offset:       0X11
169093000: system.cpu.l1i.prefetcher: PC:   0X418640
169093000: system.cpu.l1i.prefetcher: Spatial Region address:       0X30
169093000: system.cpu.l1i.prefetcher: Spatial Region physical address:    0X18640
169093000: system.cpu.l1i.prefetcher: Spatial Region offset:       0X19
169093000: system.cpu.l1i.prefetcher: PST address added: 0X20C320019
169127000: system.cpu.l1d.prefetcher: PC:   0X418610
169127000: system.cpu.l1d.prefetcher: Spatial Region address:      0X17E
169127000: system.cpu.l1d.prefetcher: Spatial Region physical address:    0XBF1E0
169127000: system.cpu.l1d.prefetcher: Spatial Region offset:        0X7
169157000: system.cpu.l1i.prefetcher: PC:   0X4186B4
169157000: system.cpu.l1i.prefetcher: Spatial Region address:       0X30
169157000: system.cpu.l1i.prefetcher: Spatial Region physical address:    0X18680
169157000: system.cpu.l1i.prefetcher: Spatial Region offset:       0X1A
169157000: system.cpu.l1i.prefetcher: PST address added: 0X20C35A01A
169221000: system.cpu.l1i.prefetcher: PC:   0X4186C0
169221000: system.cpu.l1i.prefetcher: Spatial Region address:       0X30
169221000: system.cpu.l1i.prefetcher: Spatial Region physical address:    0X186C0
169221000: system.cpu.l1i.prefetcher: Spatial Region offset:       0X1B
169221000: system.cpu.l1i.prefetcher: PST address added: 0X20C36001B
169287000: system.cpu.l1i.prefetcher: PC:   0X418700
169287000: system.cpu.l1i.prefetcher: Spatial Region address:       0X30
169287000: system.cpu.l1i.prefetcher: Spatial Region physical address:    0X18700
169287000: system.cpu.l1i.prefetcher: Spatial Region offset:       0X1C
169287000: system.cpu.l1i.prefetcher: PST address added: 0X20C38001C
169351000: system.cpu.l1i.prefetcher: PC:   0X418740
169351000: system.cpu.l1i.prefetcher: Spatial Region address:       0X30
169351000: system.cpu.l1i.prefetcher: Spatial Region physical address:    0X18740
169351000: system.cpu.l1i.prefetcher: Spatial Region offset:       0X1D
169351000: system.cpu.l1i.prefetcher: PST address added: 0X20C3A001D
169354000: system.cpu.l1d.prefetcher: PC:   0X4186FD
169354000: system.cpu.l1d.prefetcher: Spatial Region address:      0X17E
169354000: system.cpu.l1d.prefetcher: Spatial Region physical address:    0XBF200
169354000: system.cpu.l1d.prefetcher: Spatial Region offset:        0X8
169417000: system.cpu.l1d.prefetcher: PC:   0X41870B
169417000: system.cpu.l1d.prefetcher: Spatial Region address:      0X17E
169417000: system.cpu.l1d.prefetcher: Spatial Region physical address:    0XBF160
169417000: system.cpu.l1d.prefetcher: Spatial Region offset:        0X5
169418000: system.cpu.l1d.prefetcher: PC:   0X41870F
169418000: system.cpu.l1d.prefetcher: Spatial Region address:      0X17E
169418000: system.cpu.l1d.prefetcher: Spatial Region physical address:    0XBF168
169418000: system.cpu.l1d.prefetcher: Spatial Region offset:        0X5
169510000: system.cpu.l1d.prefetcher: PC:   0X4186AB
169510000: system.cpu.l1d.prefetcher: Spatial Region address:      0X17E
169510000: system.cpu.l1d.prefetcher: Spatial Region physical address:    0XBF1A8
169510000: system.cpu.l1d.prefetcher: Spatial Region offset:        0X6
169576000: system.cpu.l1d.prefetcher: PC:   0X4186BF
169576000: system.cpu.l1d.prefetcher: Spatial Region address:      0X17E
169576000: system.cpu.l1d.prefetcher: Spatial Region physical address:    0XBF320
169576000: system.cpu.l1d.prefetcher: Spatial Region offset:        0XC
169639000: system.cpu.l1d.prefetcher: PC:   0X4186FD
169639000: system.cpu.l1d.prefetcher: Spatial Region address:      0X17E
169639000: system.cpu.l1d.prefetcher: Spatial Region physical address:    0XBF3E0
169639000: system.cpu.l1d.prefetcher: Spatial Region offset:        0XF
169702000: system.cpu.l1d.prefetcher: PC:   0X41870B
169702000: system.cpu.l1d.prefetcher: Spatial Region address:      0X17E
169702000: system.cpu.l1d.prefetcher: Spatial Region physical address:    0XBF340
169702000: system.cpu.l1d.prefetcher: Spatial Region offset:        0XD
169703000: system.cpu.l1d.prefetcher: PC:   0X41870F
169703000: system.cpu.l1d.prefetcher: Spatial Region address:      0X17E
169703000: system.cpu.l1d.prefetcher: Spatial Region physical address:    0XBF348
169703000: system.cpu.l1d.prefetcher: Spatial Region offset:        0XD
169794000: system.cpu.l1d.prefetcher: PC:   0X4186AB
169794000: system.cpu.l1d.prefetcher: Spatial Region address:      0X17E
169794000: system.cpu.l1d.prefetcher: Spatial Region physical address:    0XBF388
169794000: system.cpu.l1d.prefetcher: Spatial Region offset:        0XE
169860000: system.cpu.l1d.prefetcher: PC:   0X4186BF
169860000: system.cpu.l1d.prefetcher: Spatial Region address:      0X17E
169860000: system.cpu.l1d.prefetcher: Spatial Region physical address:    0XBF500
169860000: system.cpu.l1d.prefetcher: Spatial Region offset:       0X14
169923000: system.cpu.l1d.prefetcher: PC:   0X4186FD
169923000: system.cpu.l1d.prefetcher: Spatial Region address:      0X17E
169923000: system.cpu.l1d.prefetcher: Spatial Region physical address:    0XBF5C0
169923000: system.cpu.l1d.prefetcher: Spatial Region offset:       0X17
170018000: system.cpu.l1d.prefetcher: PC:   0X4186AB
170018000: system.cpu.l1d.prefetcher: Spatial Region address:      0X17E
170018000: system.cpu.l1d.prefetcher: Spatial Region physical address:    0XBF568
170018000: system.cpu.l1d.prefetcher: Spatial Region offset:       0X15
170116000: system.cpu.l1i.prefetcher: PC:   0X418800
170116000: system.cpu.l1i.prefetcher: Spatial Region address:       0X31
170116000: system.cpu.l1i.prefetcher: Spatial Region physical address:    0X18800
170116000: system.cpu.l1i.prefetcher: Spatial Region offset:          0
170116000: system.cpu.l1i.prefetcher: PST address added: 0X20C400000
170219000: system.cpu.l1i.prefetcher: PC:   0X418900
170219000: system.cpu.l1i.prefetcher: Spatial Region address:       0X31
170219000: system.cpu.l1i.prefetcher: Spatial Region physical address:    0X18900
170219000: system.cpu.l1i.prefetcher: Spatial Region offset:        0X4
170283000: system.cpu.l1i.prefetcher: PC:   0X418AD8
170283000: system.cpu.l1i.prefetcher: Spatial Region address:       0X31
170283000: system.cpu.l1i.prefetcher: Spatial Region physical address:    0X18AC0
170283000: system.cpu.l1i.prefetcher: Spatial Region offset:        0XB
170360000: system.cpu.l1i.prefetcher: PC:   0X418B00
170360000: system.cpu.l1i.prefetcher: Spatial Region address:       0X31
170360000: system.cpu.l1i.prefetcher: Spatial Region physical address:    0X18B00
170360000: system.cpu.l1i.prefetcher: Spatial Region offset:        0XC
170430000: system.cpu.l1i.prefetcher: PC:   0X418940
170430000: system.cpu.l1i.prefetcher: Spatial Region address:       0X31
170430000: system.cpu.l1i.prefetcher: Spatial Region physical address:    0X18940
170430000: system.cpu.l1i.prefetcher: Spatial Region offset:        0X5
170498000: system.cpu.l1i.prefetcher: PC:   0X418980
170498000: system.cpu.l1i.prefetcher: Spatial Region address:       0X31
170498000: system.cpu.l1i.prefetcher: Spatial Region physical address:    0X18980
170498000: system.cpu.l1i.prefetcher: Spatial Region offset:        0X6
170572000: system.cpu.l1i.prefetcher: PC:   0X4189C0
170572000: system.cpu.l1i.prefetcher: Spatial Region address:       0X31
170572000: system.cpu.l1i.prefetcher: Spatial Region physical address:    0X189C0
170572000: system.cpu.l1i.prefetcher: Spatial Region offset:        0X7
170654000: system.cpu.l1d.prefetcher: PC:   0X418938
170654000: system.cpu.l1d.prefetcher: Spatial Region address:      0X17E
170654000: system.cpu.l1d.prefetcher: Spatial Region physical address:    0XBF588
170654000: system.cpu.l1d.prefetcher: Spatial Region offset:       0X16
170727000: system.cpu.l1i.prefetcher: PC:   0X418A30
170727000: system.cpu.l1i.prefetcher: Spatial Region address:       0X31
170727000: system.cpu.l1i.prefetcher: Spatial Region physical address:    0X18A00
170727000: system.cpu.l1i.prefetcher: Spatial Region offset:        0X8
170791000: system.cpu.l1i.prefetcher: PC:   0X418A40
170791000: system.cpu.l1i.prefetcher: Spatial Region address:       0X31
170791000: system.cpu.l1i.prefetcher: Spatial Region physical address:    0X18A40
170791000: system.cpu.l1i.prefetcher: Spatial Region offset:        0X9
170855000: system.cpu.l1i.prefetcher: PC:   0X418A80
170855000: system.cpu.l1i.prefetcher: Spatial Region address:       0X31
170855000: system.cpu.l1i.prefetcher: Spatial Region physical address:    0X18A80
170855000: system.cpu.l1i.prefetcher: Spatial Region offset:        0XA
170938000: system.cpu.l1i.prefetcher: PC:   0X418B40
170938000: system.cpu.l1i.prefetcher: Spatial Region address:       0X31
170938000: system.cpu.l1i.prefetcher: Spatial Region physical address:    0X18B40
170938000: system.cpu.l1i.prefetcher: Spatial Region offset:        0XD
171018000: system.cpu.l1i.prefetcher: PC:   0X447E00
171018000: system.cpu.l1i.prefetcher: Spatial Region address:       0X8F
171018000: system.cpu.l1i.prefetcher: Spatial Region physical address:    0X47E00
171018000: system.cpu.l1i.prefetcher: Spatial Region offset:       0X18
171018000: system.cpu.l1i.prefetcher: PST address added: 0X223F00018
171095000: system.cpu.l1i.prefetcher: PC:   0X447E40
171095000: system.cpu.l1i.prefetcher: Spatial Region address:       0X8F
171095000: system.cpu.l1i.prefetcher: Spatial Region physical address:    0X47E40
171095000: system.cpu.l1i.prefetcher: Spatial Region offset:       0X19
171095000: system.cpu.l1i.prefetcher: PST address added: 0X223F20019
171163000: system.cpu.l1i.prefetcher: PC:   0X447E80
171163000: system.cpu.l1i.prefetcher: Spatial Region address:       0X8F
171163000: system.cpu.l1i.prefetcher: Spatial Region physical address:    0X47E80
171163000: system.cpu.l1i.prefetcher: Spatial Region offset:       0X1A
171163000: system.cpu.l1i.prefetcher: PST address added: 0X223F4001A
Exit Eventexiting with last active thread context
Dump stats at the end of the ROI!
