gem5 Simulator System.  http://gem5.org
gem5 is copyrighted software; use the --copyright option for details.

gem5 version 20.1.0.2
gem5 compiled Dec 10 2021 07:18:28
gem5 started Dec 10 2021 07:23:07
gem5 executing on ARCH-750, pid 1094371
command line: /data/home/ycc32/450_project/gem5/build/X86/gem5.opt --debug-flags=HWPrefetch -re --outdir=/data/home/ycc32/450_project/gem5/results/X86/run_micro/CCa/Minor4/Slow/DDR3_2133_8x8/1GHz gem5-config/run_micro.py Minor4 Slow microbenchmark/CCa/bench.X86 DDR3_2133_8x8 --clock=1GHz

1GHz CPU speed and DRAM = DDR3_2133_8x8
system.py: init L2 cache with size 1MB
Global frequency set at 1000000000000 ticks per second
   1000: system.cpu.l1i.prefetcher: Hello World from HMM model
  79000: system.cpu.l1i.prefetcher: Hello World from HMM model
  82000: system.cpu.l1d.prefetcher: Hello World from HMM model
 143000: system.cpu.l1i.prefetcher: Hello World from HMM model
 161000: system.cpu.l1d.prefetcher: Hello World from HMM model
 162000: system.cpu.l1d.prefetcher: Hello World from HMM model
 207000: system.cpu.l1i.prefetcher: Hello World from HMM model
 298000: system.cpu.l1i.prefetcher: Hello World from HMM model
 318000: system.cpu.l1d.prefetcher: Hello World from HMM model
 321000: system.cpu.l1d.prefetcher: Hello World from HMM model
 362000: system.cpu.l1i.prefetcher: Hello World from HMM model
 459000: system.cpu.l1i.prefetcher: Hello World from HMM model
 463000: system.cpu.l1d.prefetcher: Hello World from HMM model
 528000: system.cpu.l1i.prefetcher: Hello World from HMM model
 626000: system.cpu.l1i.prefetcher: Hello World from HMM model
 630000: system.cpu.l1d.prefetcher: Hello World from HMM model
 633000: system.cpu.l1d.prefetcher: Hello World from HMM model
 690000: system.cpu.l1i.prefetcher: Hello World from HMM model
 754000: system.cpu.l1i.prefetcher: Hello World from HMM model
 831000: system.cpu.l1i.prefetcher: Hello World from HMM model
 838000: system.cpu.l1d.prefetcher: Hello World from HMM model
 844000: system.cpu.l1d.prefetcher: Hello World from HMM model
 895000: system.cpu.l1i.prefetcher: Hello World from HMM model
 933000: system.cpu.l1d.prefetcher: Hello World from HMM model
 959000: system.cpu.l1i.prefetcher: Hello World from HMM model
 998000: system.cpu.l1d.prefetcher: Hello World from HMM model
1023000: system.cpu.l1i.prefetcher: Hello World from HMM model
1062000: system.cpu.l1d.prefetcher: Hello World from HMM model
1125000: system.cpu.l1d.prefetcher: Hello World from HMM model
1190000: system.cpu.l1d.prefetcher: Hello World from HMM model
1191000: system.cpu.l1d.prefetcher: Hello World from HMM model
1259000: system.cpu.l1d.prefetcher: Hello World from HMM model
1260000: system.cpu.l1i.prefetcher: Hello World from HMM model
1353000: system.cpu.l1i.prefetcher: Hello World from HMM model
1358000: system.cpu.l1d.prefetcher: Hello World from HMM model
1359000: system.cpu.l1d.prefetcher: Hello World from HMM model
1421000: system.cpu.l1d.prefetcher: Hello World from HMM model
1500000: system.cpu.l1i.prefetcher: Hello World from HMM model
1564000: system.cpu.l1i.prefetcher: Hello World from HMM model
1637000: system.cpu.l1d.prefetcher: Hello World from HMM model
1703000: system.cpu.l1i.prefetcher: Hello World from HMM model
1767000: system.cpu.l1i.prefetcher: Hello World from HMM model
1776000: system.cpu.l1d.prefetcher: Hello World from HMM model
1831000: system.cpu.l1i.prefetcher: Hello World from HMM model
1910000: system.cpu.l1i.prefetcher: Hello World from HMM model
1974000: system.cpu.l1i.prefetcher: Hello World from HMM model
2038000: system.cpu.l1i.prefetcher: Hello World from HMM model
2117000: system.cpu.l1i.prefetcher: Hello World from HMM model
2214000: system.cpu.l1i.prefetcher: Hello World from HMM model
2312000: system.cpu.l1d.prefetcher: Hello World from HMM model
2318000: system.cpu.l1i.prefetcher: Hello World from HMM model
2409000: system.cpu.l1i.prefetcher: Hello World from HMM model
2561000: system.cpu.l1d.prefetcher: Hello World from HMM model
2749000: system.cpu.l1d.prefetcher: Hello World from HMM model
2951000: system.cpu.l1d.prefetcher: Hello World from HMM model
3043000: system.cpu.l1i.prefetcher: Hello World from HMM model
3254000: system.cpu.l1i.prefetcher: Hello World from HMM model
3345000: system.cpu.l1i.prefetcher: Hello World from HMM model
3409000: system.cpu.l1i.prefetcher: Hello World from HMM model
3487000: system.cpu.l1i.prefetcher: Hello World from HMM model
3564000: system.cpu.l1i.prefetcher: Hello World from HMM model
3628000: system.cpu.l1i.prefetcher: Hello World from HMM model
3692000: system.cpu.l1i.prefetcher: Hello World from HMM model
3756000: system.cpu.l1i.prefetcher: Hello World from HMM model
3828000: system.cpu.l1d.prefetcher: Hello World from HMM model
3842000: system.cpu.l1d.prefetcher: Hello World from HMM model
3850000: system.cpu.l1i.prefetcher: Hello World from HMM model
3918000: system.cpu.l1d.prefetcher: Hello World from HMM model
3965000: system.cpu.l1i.prefetcher: Hello World from HMM model
4029000: system.cpu.l1i.prefetcher: Hello World from HMM model
4093000: system.cpu.l1i.prefetcher: Hello World from HMM model
4157000: system.cpu.l1i.prefetcher: Hello World from HMM model
4221000: system.cpu.l1i.prefetcher: Hello World from HMM model
4300000: system.cpu.l1i.prefetcher: Hello World from HMM model
4391000: system.cpu.l1i.prefetcher: Hello World from HMM model
4457000: system.cpu.l1i.prefetcher: Hello World from HMM model
4521000: system.cpu.l1i.prefetcher: Hello World from HMM model
4589000: system.cpu.l1i.prefetcher: Hello World from HMM model
4657000: system.cpu.l1i.prefetcher: Hello World from HMM model
4721000: system.cpu.l1i.prefetcher: Hello World from HMM model
4785000: system.cpu.l1i.prefetcher: Hello World from HMM model
4862000: system.cpu.l1i.prefetcher: Hello World from HMM model
4967000: system.cpu.l1i.prefetcher: Hello World from HMM model
5031000: system.cpu.l1i.prefetcher: Hello World from HMM model
5039000: system.cpu.l1d.prefetcher: Hello World from HMM model
5101000: system.cpu.l1d.prefetcher: Hello World from HMM model
5233000: system.cpu.l1d.prefetcher: Hello World from HMM model
5323000: system.cpu.l1d.prefetcher: Hello World from HMM model
5411000: system.cpu.l1d.prefetcher: Hello World from HMM model
5428000: system.cpu.l1d.prefetcher: Hello World from HMM model
5581000: system.cpu.l1d.prefetcher: Hello World from HMM model
5727000: system.cpu.l1d.prefetcher: Hello World from HMM model
5802000: system.cpu.l1d.prefetcher: Hello World from HMM model
5874000: system.cpu.l1d.prefetcher: Hello World from HMM model
5931000: system.cpu.l1d.prefetcher: Hello World from HMM model
5945000: system.cpu.l1i.prefetcher: Hello World from HMM model
6048000: system.cpu.l1i.prefetcher: Hello World from HMM model
6139000: system.cpu.l1i.prefetcher: Hello World from HMM model
6203000: system.cpu.l1i.prefetcher: Hello World from HMM model
6276000: system.cpu.l1d.prefetcher: Hello World from HMM model
6289000: system.cpu.l1d.prefetcher: Hello World from HMM model
6381000: system.cpu.l1i.prefetcher: Hello World from HMM model
6472000: system.cpu.l1i.prefetcher: Hello World from HMM model
6536000: system.cpu.l1i.prefetcher: Hello World from HMM model
6628000: system.cpu.l1i.prefetcher: Hello World from HMM model
6705000: system.cpu.l1i.prefetcher: Hello World from HMM model
6797000: system.cpu.l1i.prefetcher: Hello World from HMM model
6887000: system.cpu.l1d.prefetcher: Hello World from HMM model
6888000: system.cpu.l1d.prefetcher: Hello World from HMM model
6993000: system.cpu.l1i.prefetcher: Hello World from HMM model
7084000: system.cpu.l1i.prefetcher: Hello World from HMM model
7148000: system.cpu.l1i.prefetcher: Hello World from HMM model
7216000: system.cpu.l1i.prefetcher: Hello World from HMM model
7282000: system.cpu.l1i.prefetcher: Hello World from HMM model
7374000: system.cpu.l1i.prefetcher: Hello World from HMM model
7438000: system.cpu.l1i.prefetcher: Hello World from HMM model
7502000: system.cpu.l1i.prefetcher: Hello World from HMM model
7570000: system.cpu.l1i.prefetcher: Hello World from HMM model
7666000: system.cpu.l1i.prefetcher: Hello World from HMM model
7767000: system.cpu.l1d.prefetcher: Hello World from HMM model
7768000: system.cpu.l1d.prefetcher: Hello World from HMM model
7872000: system.cpu.l1i.prefetcher: Hello World from HMM model
8125000: system.cpu.l1i.prefetcher: Hello World from HMM model
8189000: system.cpu.l1i.prefetcher: Hello World from HMM model
8281000: system.cpu.l1i.prefetcher: Hello World from HMM model
8358000: system.cpu.l1i.prefetcher: Hello World from HMM model
8469000: system.cpu.l1d.prefetcher: Hello World from HMM model
8547000: system.cpu.l1i.prefetcher: Hello World from HMM model
8672000: system.cpu.l1i.prefetcher: Hello World from HMM model
8736000: system.cpu.l1i.prefetcher: Hello World from HMM model
8804000: system.cpu.l1i.prefetcher: Hello World from HMM model
8896000: system.cpu.l1i.prefetcher: Hello World from HMM model
8960000: system.cpu.l1i.prefetcher: Hello World from HMM model
9024000: system.cpu.l1i.prefetcher: Hello World from HMM model
9097000: system.cpu.l1d.prefetcher: Hello World from HMM model
9098000: system.cpu.l1d.prefetcher: Hello World from HMM model
9199000: system.cpu.l1i.prefetcher: Hello World from HMM model
9294000: system.cpu.l1i.prefetcher: Hello World from HMM model
9386000: system.cpu.l1i.prefetcher: Hello World from HMM model
9461000: system.cpu.l1i.prefetcher: Hello World from HMM model
9553000: system.cpu.l1i.prefetcher: Hello World from HMM model
9630000: system.cpu.l1i.prefetcher: Hello World from HMM model
9694000: system.cpu.l1i.prefetcher: Hello World from HMM model
9768000: system.cpu.l1d.prefetcher: Hello World from HMM model
9769000: system.cpu.l1d.prefetcher: Hello World from HMM model
9873000: system.cpu.l1i.prefetcher: Hello World from HMM model
9937000: system.cpu.l1i.prefetcher: Hello World from HMM model
10001000: system.cpu.l1i.prefetcher: Hello World from HMM model
10147000: system.cpu.l1d.prefetcher: Hello World from HMM model
10212000: system.cpu.l1i.prefetcher: Hello World from HMM model
10276000: system.cpu.l1i.prefetcher: Hello World from HMM model
10340000: system.cpu.l1i.prefetcher: Hello World from HMM model
10432000: system.cpu.l1i.prefetcher: Hello World from HMM model
10496000: system.cpu.l1i.prefetcher: Hello World from HMM model
10560000: system.cpu.l1i.prefetcher: Hello World from HMM model
10656000: system.cpu.l1i.prefetcher: Hello World from HMM model
10724000: system.cpu.l1i.prefetcher: Hello World from HMM model
10815000: system.cpu.l1d.prefetcher: Hello World from HMM model
10816000: system.cpu.l1d.prefetcher: Hello World from HMM model
10916000: system.cpu.l1i.prefetcher: Hello World from HMM model
11013000: system.cpu.l1i.prefetcher: Hello World from HMM model
11154000: system.cpu.l1i.prefetcher: Hello World from HMM model
11247000: system.cpu.l1d.prefetcher: Hello World from HMM model
11248000: system.cpu.l1d.prefetcher: Hello World from HMM model
11372000: system.cpu.l1i.prefetcher: Hello World from HMM model
11463000: system.cpu.l1i.prefetcher: Hello World from HMM model
11527000: system.cpu.l1i.prefetcher: Hello World from HMM model
11591000: system.cpu.l1i.prefetcher: Hello World from HMM model
11616000: system.cpu.l1d.prefetcher: Hello World from HMM model
11655000: system.cpu.l1i.prefetcher: Hello World from HMM model
11722000: system.cpu.l1i.prefetcher: Hello World from HMM model
11723000: system.cpu.l1d.prefetcher: Hello World from HMM model
11786000: system.cpu.l1i.prefetcher: Hello World from HMM model
11862000: system.cpu.l1d.prefetcher: Hello World from HMM model
11863000: system.cpu.l1d.prefetcher: Hello World from HMM model
11864000: system.cpu.l1i.prefetcher: Hello World from HMM model
11942000: system.cpu.l1d.prefetcher: Hello World from HMM model
11943000: system.cpu.l1d.prefetcher: Hello World from HMM model
12013000: system.cpu.l1d.prefetcher: Hello World from HMM model
12014000: system.cpu.l1d.prefetcher: Hello World from HMM model
12084000: system.cpu.l1d.prefetcher: Hello World from HMM model
12085000: system.cpu.l1d.prefetcher: Hello World from HMM model
12155000: system.cpu.l1d.prefetcher: Hello World from HMM model
12156000: system.cpu.l1d.prefetcher: Hello World from HMM model
12226000: system.cpu.l1d.prefetcher: Hello World from HMM model
12293000: system.cpu.l1d.prefetcher: Hello World from HMM model
12456000: system.cpu.l1i.prefetcher: Hello World from HMM model
12520000: system.cpu.l1i.prefetcher: Hello World from HMM model
12597000: system.cpu.l1i.prefetcher: Hello World from HMM model
12608000: system.cpu.l1d.prefetcher: Hello World from HMM model
12661000: system.cpu.l1i.prefetcher: Hello World from HMM model
12729000: system.cpu.l1i.prefetcher: Hello World from HMM model
12793000: system.cpu.l1i.prefetcher: Hello World from HMM model
12857000: system.cpu.l1i.prefetcher: Hello World from HMM model
12925000: system.cpu.l1i.prefetcher: Hello World from HMM model
12999000: system.cpu.l1i.prefetcher: Hello World from HMM model
13114000: system.cpu.l1i.prefetcher: Hello World from HMM model
13187000: system.cpu.l1i.prefetcher: Hello World from HMM model
13260000: system.cpu.l1d.prefetcher: Hello World from HMM model
13314000: system.cpu.l1i.prefetcher: Hello World from HMM model
13341000: system.cpu.l1d.prefetcher: Hello World from HMM model
13349000: system.cpu.l1d.prefetcher: Hello World from HMM model
13405000: system.cpu.l1i.prefetcher: Hello World from HMM model
13406000: system.cpu.l1d.prefetcher: Hello World from HMM model
13496000: system.cpu.l1i.prefetcher: Hello World from HMM model
13560000: system.cpu.l1i.prefetcher: Hello World from HMM model
13651000: system.cpu.l1i.prefetcher: Hello World from HMM model
13660000: system.cpu.l1d.prefetcher: Hello World from HMM model
13661000: system.cpu.l1d.prefetcher: Hello World from HMM model
13715000: system.cpu.l1i.prefetcher: Hello World from HMM model
13784000: system.cpu.l1i.prefetcher: Hello World from HMM model
13785000: system.cpu.l1d.prefetcher: Hello World from HMM model
13786000: system.cpu.l1d.prefetcher: Hello World from HMM model
13894000: system.cpu.l1i.prefetcher: Hello World from HMM model
13897000: system.cpu.l1d.prefetcher: Hello World from HMM model
13900000: system.cpu.l1d.prefetcher: Hello World from HMM model
13994000: system.cpu.l1i.prefetcher: Hello World from HMM model
14072000: system.cpu.l1d.prefetcher: Hello World from HMM model
14081000: system.cpu.l1d.prefetcher: Hello World from HMM model
14081000: system.cpu.l1i.prefetcher: Hello World from HMM model
14165000: system.cpu.l1d.prefetcher: Hello World from HMM model
14214000: system.cpu.l1i.prefetcher: Hello World from HMM model
14282000: system.cpu.l1i.prefetcher: Hello World from HMM model
14288000: system.cpu.l1d.prefetcher: Hello World from HMM model
14346000: system.cpu.l1i.prefetcher: Hello World from HMM model
14410000: system.cpu.l1i.prefetcher: Hello World from HMM model
14474000: system.cpu.l1i.prefetcher: Hello World from HMM model
14565000: system.cpu.l1i.prefetcher: Hello World from HMM model
14629000: system.cpu.l1i.prefetcher: Hello World from HMM model
14636000: system.cpu.l1d.prefetcher: Hello World from HMM model
14693000: system.cpu.l1i.prefetcher: Hello World from HMM model
14757000: system.cpu.l1i.prefetcher: Hello World from HMM model
14826000: system.cpu.l1i.prefetcher: Hello World from HMM model
14895000: system.cpu.l1i.prefetcher: Hello World from HMM model
14898000: system.cpu.l1d.prefetcher: Hello World from HMM model
14965000: system.cpu.l1i.prefetcher: Hello World from HMM model
15133000: system.cpu.l1i.prefetcher: Hello World from HMM model
15223000: system.cpu.l1i.prefetcher: Hello World from HMM model
15320000: system.cpu.l1i.prefetcher: Hello World from HMM model
15321000: system.cpu.l1d.prefetcher: Hello World from HMM model
15406000: system.cpu.l1i.prefetcher: Hello World from HMM model
15488000: system.cpu.l1i.prefetcher: Hello World from HMM model
15554000: system.cpu.l1i.prefetcher: Hello World from HMM model
15559000: system.cpu.l1d.prefetcher: Hello World from HMM model
15618000: system.cpu.l1i.prefetcher: Hello World from HMM model
15961000: system.cpu.l1d.prefetcher: Hello World from HMM model
15964000: system.cpu.l1i.prefetcher: Hello World from HMM model
16045000: system.cpu.l1i.prefetcher: Hello World from HMM model
16113000: system.cpu.l1i.prefetcher: Hello World from HMM model
16114000: system.cpu.l1d.prefetcher: Hello World from HMM model
16177000: system.cpu.l1i.prefetcher: Hello World from HMM model
16260000: system.cpu.l1i.prefetcher: Hello World from HMM model
16344000: system.cpu.l1d.prefetcher: Hello World from HMM model
16581000: system.cpu.l1i.prefetcher: Hello World from HMM model
16645000: system.cpu.l1i.prefetcher: Hello World from HMM model
16722000: system.cpu.l1i.prefetcher: Hello World from HMM model
16728000: system.cpu.l1d.prefetcher: Hello World from HMM model
16786000: system.cpu.l1i.prefetcher: Hello World from HMM model
16821000: system.cpu.l1d.prefetcher: Hello World from HMM model
16822000: system.cpu.l1d.prefetcher: Hello World from HMM model
16877000: system.cpu.l1i.prefetcher: Hello World from HMM model
16941000: system.cpu.l1i.prefetcher: Hello World from HMM model
17005000: system.cpu.l1i.prefetcher: Hello World from HMM model
17069000: system.cpu.l1i.prefetcher: Hello World from HMM model
17074000: system.cpu.l1d.prefetcher: Hello World from HMM model
17133000: system.cpu.l1i.prefetcher: Hello World from HMM model
17224000: system.cpu.l1i.prefetcher: Hello World from HMM model
17288000: system.cpu.l1i.prefetcher: Hello World from HMM model
17352000: system.cpu.l1i.prefetcher: Hello World from HMM model
17429000: system.cpu.l1i.prefetcher: Hello World from HMM model
17493000: system.cpu.l1i.prefetcher: Hello World from HMM model
17501000: system.cpu.l1d.prefetcher: Hello World from HMM model
17510000: system.cpu.l1d.prefetcher: Hello World from HMM model
17561000: system.cpu.l1i.prefetcher: Hello World from HMM model
17576000: system.cpu.l1d.prefetcher: Hello World from HMM model
17658000: system.cpu.l1i.prefetcher: Hello World from HMM model
17735000: system.cpu.l1d.prefetcher: Hello World from HMM model
17736000: system.cpu.l1d.prefetcher: Hello World from HMM model
17866000: system.cpu.l1d.prefetcher: Hello World from HMM model
17867000: system.cpu.l1d.prefetcher: Hello World from HMM model
17970000: system.cpu.l1d.prefetcher: Hello World from HMM model
17971000: system.cpu.l1d.prefetcher: Hello World from HMM model
18074000: system.cpu.l1d.prefetcher: Hello World from HMM model
18075000: system.cpu.l1d.prefetcher: Hello World from HMM model
18178000: system.cpu.l1d.prefetcher: Hello World from HMM model
18179000: system.cpu.l1d.prefetcher: Hello World from HMM model
18282000: system.cpu.l1d.prefetcher: Hello World from HMM model
18283000: system.cpu.l1d.prefetcher: Hello World from HMM model
18386000: system.cpu.l1d.prefetcher: Hello World from HMM model
18387000: system.cpu.l1d.prefetcher: Hello World from HMM model
18490000: system.cpu.l1d.prefetcher: Hello World from HMM model
18491000: system.cpu.l1d.prefetcher: Hello World from HMM model
18594000: system.cpu.l1d.prefetcher: Hello World from HMM model
18595000: system.cpu.l1d.prefetcher: Hello World from HMM model
18698000: system.cpu.l1d.prefetcher: Hello World from HMM model
18699000: system.cpu.l1d.prefetcher: Hello World from HMM model
18802000: system.cpu.l1d.prefetcher: Hello World from HMM model
18803000: system.cpu.l1d.prefetcher: Hello World from HMM model
18906000: system.cpu.l1d.prefetcher: Hello World from HMM model
18907000: system.cpu.l1d.prefetcher: Hello World from HMM model
19010000: system.cpu.l1d.prefetcher: Hello World from HMM model
19011000: system.cpu.l1d.prefetcher: Hello World from HMM model
19114000: system.cpu.l1d.prefetcher: Hello World from HMM model
19115000: system.cpu.l1d.prefetcher: Hello World from HMM model
19218000: system.cpu.l1d.prefetcher: Hello World from HMM model
19219000: system.cpu.l1d.prefetcher: Hello World from HMM model
19322000: system.cpu.l1d.prefetcher: Hello World from HMM model
19323000: system.cpu.l1d.prefetcher: Hello World from HMM model
19426000: system.cpu.l1d.prefetcher: Hello World from HMM model
19427000: system.cpu.l1d.prefetcher: Hello World from HMM model
19543000: system.cpu.l1d.prefetcher: Hello World from HMM model
19544000: system.cpu.l1d.prefetcher: Hello World from HMM model
19647000: system.cpu.l1d.prefetcher: Hello World from HMM model
19648000: system.cpu.l1d.prefetcher: Hello World from HMM model
19751000: system.cpu.l1d.prefetcher: Hello World from HMM model
19752000: system.cpu.l1d.prefetcher: Hello World from HMM model
19855000: system.cpu.l1d.prefetcher: Hello World from HMM model
19856000: system.cpu.l1d.prefetcher: Hello World from HMM model
19959000: system.cpu.l1d.prefetcher: Hello World from HMM model
19960000: system.cpu.l1d.prefetcher: Hello World from HMM model
20063000: system.cpu.l1d.prefetcher: Hello World from HMM model
20064000: system.cpu.l1d.prefetcher: Hello World from HMM model
20167000: system.cpu.l1d.prefetcher: Hello World from HMM model
20168000: system.cpu.l1d.prefetcher: Hello World from HMM model
20271000: system.cpu.l1d.prefetcher: Hello World from HMM model
20272000: system.cpu.l1d.prefetcher: Hello World from HMM model
20375000: system.cpu.l1d.prefetcher: Hello World from HMM model
20376000: system.cpu.l1d.prefetcher: Hello World from HMM model
20479000: system.cpu.l1d.prefetcher: Hello World from HMM model
20480000: system.cpu.l1d.prefetcher: Hello World from HMM model
20583000: system.cpu.l1d.prefetcher: Hello World from HMM model
20584000: system.cpu.l1d.prefetcher: Hello World from HMM model
20687000: system.cpu.l1d.prefetcher: Hello World from HMM model
20688000: system.cpu.l1d.prefetcher: Hello World from HMM model
20791000: system.cpu.l1d.prefetcher: Hello World from HMM model
20792000: system.cpu.l1d.prefetcher: Hello World from HMM model
20895000: system.cpu.l1d.prefetcher: Hello World from HMM model
20896000: system.cpu.l1d.prefetcher: Hello World from HMM model
20990000: system.cpu.l1i.prefetcher: Hello World from HMM model
21091000: system.cpu.l1d.prefetcher: Hello World from HMM model
21189000: system.cpu.l1d.prefetcher: Hello World from HMM model
21293000: system.cpu.l1d.prefetcher: Hello World from HMM model
21412000: system.cpu.l1i.prefetcher: Hello World from HMM model
21513000: system.cpu.l1d.prefetcher: Hello World from HMM model
21655000: system.cpu.l1d.prefetcher: Hello World from HMM model
21789000: system.cpu.l1d.prefetcher: Hello World from HMM model
21909000: system.cpu.l1i.prefetcher: Hello World from HMM model
22010000: system.cpu.l1d.prefetcher: Hello World from HMM model
22152000: system.cpu.l1d.prefetcher: Hello World from HMM model
22287000: system.cpu.l1d.prefetcher: Hello World from HMM model
22350000: system.cpu.l1d.prefetcher: Hello World from HMM model
22470000: system.cpu.l1i.prefetcher: Hello World from HMM model
22571000: system.cpu.l1d.prefetcher: Hello World from HMM model
22804000: system.cpu.l1d.prefetcher: Hello World from HMM model
22938000: system.cpu.l1d.prefetcher: Hello World from HMM model
23001000: system.cpu.l1d.prefetcher: Hello World from HMM model
23119000: system.cpu.l1i.prefetcher: Hello World from HMM model
23214000: system.cpu.l1i.prefetcher: Hello World from HMM model
23285000: system.cpu.l1i.prefetcher: Hello World from HMM model
23351000: system.cpu.l1i.prefetcher: Hello World from HMM model
23728000: system.cpu.l1i.prefetcher: Hello World from HMM model
23805000: system.cpu.l1i.prefetcher: Hello World from HMM model
23869000: system.cpu.l1i.prefetcher: Hello World from HMM model
23933000: system.cpu.l1i.prefetcher: Hello World from HMM model
23997000: system.cpu.l1i.prefetcher: Hello World from HMM model
24012000: system.cpu.l1d.prefetcher: Hello World from HMM model
24015000: system.cpu.l1d.prefetcher: Hello World from HMM model
24061000: system.cpu.l1i.prefetcher: Hello World from HMM model
24125000: system.cpu.l1i.prefetcher: Hello World from HMM model
24189000: system.cpu.l1i.prefetcher: Hello World from HMM model
24253000: system.cpu.l1i.prefetcher: Hello World from HMM model
24319000: system.cpu.l1i.prefetcher: Hello World from HMM model
24383000: system.cpu.l1i.prefetcher: Hello World from HMM model
24447000: system.cpu.l1i.prefetcher: Hello World from HMM model
24453000: system.cpu.l1d.prefetcher: Hello World from HMM model
24511000: system.cpu.l1i.prefetcher: Hello World from HMM model
24575000: system.cpu.l1i.prefetcher: Hello World from HMM model
24583000: system.cpu.l1d.prefetcher: Hello World from HMM model
24643000: system.cpu.l1i.prefetcher: Hello World from HMM model
24707000: system.cpu.l1i.prefetcher: Hello World from HMM model
24771000: system.cpu.l1i.prefetcher: Hello World from HMM model
24852000: system.cpu.l1i.prefetcher: Hello World from HMM model
24859000: system.cpu.l1d.prefetcher: Hello World from HMM model
24916000: system.cpu.l1i.prefetcher: Hello World from HMM model
24980000: system.cpu.l1i.prefetcher: Hello World from HMM model
25044000: system.cpu.l1i.prefetcher: Hello World from HMM model
25110000: system.cpu.l1i.prefetcher: Hello World from HMM model
25174000: system.cpu.l1i.prefetcher: Hello World from HMM model
25238000: system.cpu.l1i.prefetcher: Hello World from HMM model
25302000: system.cpu.l1i.prefetcher: Hello World from HMM model
25366000: system.cpu.l1i.prefetcher: Hello World from HMM model
25379000: system.cpu.l1d.prefetcher: Hello World from HMM model
25382000: system.cpu.l1d.prefetcher: Hello World from HMM model
25430000: system.cpu.l1i.prefetcher: Hello World from HMM model
25445000: system.cpu.l1d.prefetcher: Hello World from HMM model
25494000: system.cpu.l1i.prefetcher: Hello World from HMM model
25538000: system.cpu.l1d.prefetcher: Hello World from HMM model
25562000: system.cpu.l1i.prefetcher: Hello World from HMM model
25626000: system.cpu.l1i.prefetcher: Hello World from HMM model
25690000: system.cpu.l1i.prefetcher: Hello World from HMM model
25754000: system.cpu.l1i.prefetcher: Hello World from HMM model
25818000: system.cpu.l1i.prefetcher: Hello World from HMM model
25964000: system.cpu.l1d.prefetcher: Hello World from HMM model
26039000: system.cpu.l1i.prefetcher: Hello World from HMM model
26047000: system.cpu.l1d.prefetcher: Hello World from HMM model
26116000: system.cpu.l1i.prefetcher: Hello World from HMM model
26140000: system.cpu.l1d.prefetcher: Hello World from HMM model
26180000: system.cpu.l1i.prefetcher: Hello World from HMM model
26244000: system.cpu.l1i.prefetcher: Hello World from HMM model
26308000: system.cpu.l1i.prefetcher: Hello World from HMM model
26385000: system.cpu.l1i.prefetcher: Hello World from HMM model
26449000: system.cpu.l1i.prefetcher: Hello World from HMM model
26513000: system.cpu.l1i.prefetcher: Hello World from HMM model
26581000: system.cpu.l1i.prefetcher: Hello World from HMM model
26647000: system.cpu.l1i.prefetcher: Hello World from HMM model
26724000: system.cpu.l1i.prefetcher: Hello World from HMM model
26934000: system.cpu.l1i.prefetcher: Hello World from HMM model
26998000: system.cpu.l1i.prefetcher: Hello World from HMM model
27062000: system.cpu.l1i.prefetcher: Hello World from HMM model
27144000: system.cpu.l1d.prefetcher: Hello World from HMM model
27154000: system.cpu.l1i.prefetcher: Hello World from HMM model
27218000: system.cpu.l1i.prefetcher: Hello World from HMM model
27282000: system.cpu.l1i.prefetcher: Hello World from HMM model
27291000: system.cpu.l1d.prefetcher: Hello World from HMM model
27363000: system.cpu.l1i.prefetcher: Hello World from HMM model
27463000: system.cpu.l1i.prefetcher: Hello World from HMM model
27531000: system.cpu.l1i.prefetcher: Hello World from HMM model
27635000: system.cpu.l1d.prefetcher: Hello World from HMM model
27647000: system.cpu.l1d.prefetcher: Hello World from HMM model
27729000: system.cpu.l1d.prefetcher: Hello World from HMM model
27741000: system.cpu.l1d.prefetcher: Hello World from HMM model
27823000: system.cpu.l1d.prefetcher: Hello World from HMM model
27835000: system.cpu.l1d.prefetcher: Hello World from HMM model
27917000: system.cpu.l1d.prefetcher: Hello World from HMM model
27929000: system.cpu.l1d.prefetcher: Hello World from HMM model
28011000: system.cpu.l1d.prefetcher: Hello World from HMM model
28023000: system.cpu.l1d.prefetcher: Hello World from HMM model
28105000: system.cpu.l1d.prefetcher: Hello World from HMM model
28117000: system.cpu.l1d.prefetcher: Hello World from HMM model
28199000: system.cpu.l1d.prefetcher: Hello World from HMM model
28211000: system.cpu.l1d.prefetcher: Hello World from HMM model
28293000: system.cpu.l1d.prefetcher: Hello World from HMM model
28305000: system.cpu.l1d.prefetcher: Hello World from HMM model
28387000: system.cpu.l1d.prefetcher: Hello World from HMM model
28399000: system.cpu.l1d.prefetcher: Hello World from HMM model
28463000: system.cpu.l1i.prefetcher: Hello World from HMM model
28631000: system.cpu.l1i.prefetcher: Hello World from HMM model
28700000: system.cpu.l1i.prefetcher: Hello World from HMM model
28775000: system.cpu.l1i.prefetcher: Hello World from HMM model
28839000: system.cpu.l1i.prefetcher: Hello World from HMM model
28844000: system.cpu.l1d.prefetcher: Hello World from HMM model
28903000: system.cpu.l1i.prefetcher: Hello World from HMM model
28989000: system.cpu.l1i.prefetcher: Hello World from HMM model
29083000: system.cpu.l1i.prefetcher: Hello World from HMM model
29176000: system.cpu.l1i.prefetcher: Hello World from HMM model
29254000: system.cpu.l1i.prefetcher: Hello World from HMM model
29318000: system.cpu.l1i.prefetcher: Hello World from HMM model
29401000: system.cpu.l1d.prefetcher: Hello World from HMM model
29483000: system.cpu.l1i.prefetcher: Hello World from HMM model
29560000: system.cpu.l1i.prefetcher: Hello World from HMM model
29651000: system.cpu.l1i.prefetcher: Hello World from HMM model
29741000: system.cpu.l1i.prefetcher: Hello World from HMM model
29818000: system.cpu.l1i.prefetcher: Hello World from HMM model
29882000: system.cpu.l1i.prefetcher: Hello World from HMM model
29948000: system.cpu.l1i.prefetcher: Hello World from HMM model
30017000: system.cpu.l1i.prefetcher: Hello World from HMM model
30114000: system.cpu.l1d.prefetcher: Hello World from HMM model
30119000: system.cpu.l1i.prefetcher: Hello World from HMM model
30120000: system.cpu.l1d.prefetcher: Hello World from HMM model
30207000: system.cpu.l1d.prefetcher: Hello World from HMM model
30210000: system.cpu.l1i.prefetcher: Hello World from HMM model
30287000: system.cpu.l1i.prefetcher: Hello World from HMM model
30351000: system.cpu.l1i.prefetcher: Hello World from HMM model
30360000: system.cpu.l1d.prefetcher: Hello World from HMM model
30415000: system.cpu.l1i.prefetcher: Hello World from HMM model
30483000: system.cpu.l1i.prefetcher: Hello World from HMM model
30487000: system.cpu.l1d.prefetcher: Hello World from HMM model
30549000: system.cpu.l1i.prefetcher: Hello World from HMM model
30640000: system.cpu.l1i.prefetcher: Hello World from HMM model
30731000: system.cpu.l1i.prefetcher: Hello World from HMM model
30795000: system.cpu.l1i.prefetcher: Hello World from HMM model
30867000: system.cpu.l1i.prefetcher: Hello World from HMM model
30985000: system.cpu.l1i.prefetcher: Hello World from HMM model
31049000: system.cpu.l1i.prefetcher: Hello World from HMM model
31126000: system.cpu.l1i.prefetcher: Hello World from HMM model
31190000: system.cpu.l1i.prefetcher: Hello World from HMM model
31491000: system.cpu.l1i.prefetcher: Hello World from HMM model
31588000: system.cpu.l1d.prefetcher: Hello World from HMM model
31589000: system.cpu.l1d.prefetcher: Hello World from HMM model
31664000: system.cpu.l1d.prefetcher: Hello World from HMM model
31741000: system.cpu.l1i.prefetcher: Hello World from HMM model
31822000: system.cpu.l1i.prefetcher: Hello World from HMM model
31886000: system.cpu.l1i.prefetcher: Hello World from HMM model
31977000: system.cpu.l1i.prefetcher: Hello World from HMM model
32041000: system.cpu.l1i.prefetcher: Hello World from HMM model
32105000: system.cpu.l1i.prefetcher: Hello World from HMM model
32192000: system.cpu.l1d.prefetcher: Hello World from HMM model
32213000: system.cpu.l1i.prefetcher: Hello World from HMM model
32228000: system.cpu.l1d.prefetcher: Hello World from HMM model
32268000: system.cpu.l1d.prefetcher: Hello World from HMM model
32270000: system.cpu.l1d.prefetcher: Hello World from HMM model
32373000: system.cpu.l1i.prefetcher: Hello World from HMM model
32507000: system.cpu.l1i.prefetcher: Hello World from HMM model
32592000: system.cpu.l1d.prefetcher: Hello World from HMM model
32636000: system.cpu.l1i.prefetcher: Hello World from HMM model
32700000: system.cpu.l1i.prefetcher: Hello World from HMM model
32764000: system.cpu.l1i.prefetcher: Hello World from HMM model
32832000: system.cpu.l1i.prefetcher: Hello World from HMM model
32937000: system.cpu.l1i.prefetcher: Hello World from HMM model
33016000: system.cpu.l1i.prefetcher: Hello World from HMM model
33080000: system.cpu.l1i.prefetcher: Hello World from HMM model
33144000: system.cpu.l1i.prefetcher: Hello World from HMM model
33244000: system.cpu.l1i.prefetcher: Hello World from HMM model
33335000: system.cpu.l1i.prefetcher: Hello World from HMM model
33399000: system.cpu.l1i.prefetcher: Hello World from HMM model
33463000: system.cpu.l1i.prefetcher: Hello World from HMM model
33527000: system.cpu.l1i.prefetcher: Hello World from HMM model
33595000: system.cpu.l1i.prefetcher: Hello World from HMM model
33602000: system.cpu.l1d.prefetcher: Hello World from HMM model
33606000: system.cpu.l1d.prefetcher: Hello World from HMM model
33659000: system.cpu.l1i.prefetcher: Hello World from HMM model
33692000: system.cpu.l1d.prefetcher: Hello World from HMM model
33693000: system.cpu.l1d.prefetcher: Hello World from HMM model
33813000: system.cpu.l1i.prefetcher: Hello World from HMM model
33910000: system.cpu.l1d.prefetcher: Hello World from HMM model
33911000: system.cpu.l1d.prefetcher: Hello World from HMM model
34015000: system.cpu.l1d.prefetcher: Hello World from HMM model
34016000: system.cpu.l1d.prefetcher: Hello World from HMM model
34094000: system.cpu.l1d.prefetcher: Hello World from HMM model
34095000: system.cpu.l1d.prefetcher: Hello World from HMM model
34172000: system.cpu.l1d.prefetcher: Hello World from HMM model
34173000: system.cpu.l1d.prefetcher: Hello World from HMM model
34251000: system.cpu.l1d.prefetcher: Hello World from HMM model
34252000: system.cpu.l1d.prefetcher: Hello World from HMM model
34329000: system.cpu.l1d.prefetcher: Hello World from HMM model
34330000: system.cpu.l1d.prefetcher: Hello World from HMM model
34408000: system.cpu.l1d.prefetcher: Hello World from HMM model
34409000: system.cpu.l1d.prefetcher: Hello World from HMM model
34486000: system.cpu.l1d.prefetcher: Hello World from HMM model
34487000: system.cpu.l1d.prefetcher: Hello World from HMM model
34565000: system.cpu.l1d.prefetcher: Hello World from HMM model
34566000: system.cpu.l1d.prefetcher: Hello World from HMM model
34643000: system.cpu.l1d.prefetcher: Hello World from HMM model
34644000: system.cpu.l1d.prefetcher: Hello World from HMM model
34722000: system.cpu.l1d.prefetcher: Hello World from HMM model
34723000: system.cpu.l1d.prefetcher: Hello World from HMM model
34800000: system.cpu.l1d.prefetcher: Hello World from HMM model
34801000: system.cpu.l1d.prefetcher: Hello World from HMM model
34879000: system.cpu.l1d.prefetcher: Hello World from HMM model
34880000: system.cpu.l1d.prefetcher: Hello World from HMM model
34957000: system.cpu.l1d.prefetcher: Hello World from HMM model
34958000: system.cpu.l1d.prefetcher: Hello World from HMM model
35036000: system.cpu.l1d.prefetcher: Hello World from HMM model
35037000: system.cpu.l1d.prefetcher: Hello World from HMM model
35114000: system.cpu.l1d.prefetcher: Hello World from HMM model
35115000: system.cpu.l1d.prefetcher: Hello World from HMM model
35213000: system.cpu.l1i.prefetcher: Hello World from HMM model
35334000: system.cpu.l1i.prefetcher: Hello World from HMM model
35402000: system.cpu.l1i.prefetcher: Hello World from HMM model
35505000: system.cpu.l1i.prefetcher: Hello World from HMM model
35611000: system.cpu.l1i.prefetcher: Hello World from HMM model
35675000: system.cpu.l1i.prefetcher: Hello World from HMM model
35739000: system.cpu.l1i.prefetcher: Hello World from HMM model
35803000: system.cpu.l1i.prefetcher: Hello World from HMM model
35871000: system.cpu.l1i.prefetcher: Hello World from HMM model
35940000: system.cpu.l1i.prefetcher: Hello World from HMM model
36008000: system.cpu.l1i.prefetcher: Hello World from HMM model
36074000: system.cpu.l1i.prefetcher: Hello World from HMM model
36181000: system.cpu.l1d.prefetcher: Hello World from HMM model
36182000: system.cpu.l1d.prefetcher: Hello World from HMM model
36184000: system.cpu.l1i.prefetcher: Hello World from HMM model
36288000: system.cpu.l1i.prefetcher: Hello World from HMM model
36354000: system.cpu.l1i.prefetcher: Hello World from HMM model
36426000: system.cpu.l1i.prefetcher: Hello World from HMM model
36490000: system.cpu.l1i.prefetcher: Hello World from HMM model
36554000: system.cpu.l1i.prefetcher: Hello World from HMM model
36618000: system.cpu.l1i.prefetcher: Hello World from HMM model
36682000: system.cpu.l1i.prefetcher: Hello World from HMM model
36746000: system.cpu.l1i.prefetcher: Hello World from HMM model
36810000: system.cpu.l1i.prefetcher: Hello World from HMM model
36874000: system.cpu.l1i.prefetcher: Hello World from HMM model
36949000: system.cpu.l1i.prefetcher: Hello World from HMM model
37023000: system.cpu.l1i.prefetcher: Hello World from HMM model
37091000: system.cpu.l1i.prefetcher: Hello World from HMM model
37164000: system.cpu.l1i.prefetcher: Hello World from HMM model
37228000: system.cpu.l1i.prefetcher: Hello World from HMM model
37292000: system.cpu.l1i.prefetcher: Hello World from HMM model
37388000: system.cpu.l1i.prefetcher: Hello World from HMM model
37460000: system.cpu.l1i.prefetcher: Hello World from HMM model
37546000: system.cpu.l1i.prefetcher: Hello World from HMM model
37632000: system.cpu.l1i.prefetcher: Hello World from HMM model
37743000: system.cpu.l1i.prefetcher: Hello World from HMM model
37828000: system.cpu.l1i.prefetcher: Hello World from HMM model
37911000: system.cpu.l1i.prefetcher: Hello World from HMM model
37982000: system.cpu.l1i.prefetcher: Hello World from HMM model
38056000: system.cpu.l1i.prefetcher: Hello World from HMM model
38120000: system.cpu.l1i.prefetcher: Hello World from HMM model
38184000: system.cpu.l1i.prefetcher: Hello World from HMM model
38248000: system.cpu.l1i.prefetcher: Hello World from HMM model
38312000: system.cpu.l1i.prefetcher: Hello World from HMM model
38378000: system.cpu.l1i.prefetcher: Hello World from HMM model
38469000: system.cpu.l1i.prefetcher: Hello World from HMM model
38537000: system.cpu.l1i.prefetcher: Hello World from HMM model
38547000: system.cpu.l1d.prefetcher: Hello World from HMM model
38676000: system.cpu.l1d.prefetcher: Hello World from HMM model
38769000: system.cpu.l1i.prefetcher: Hello World from HMM model
38833000: system.cpu.l1i.prefetcher: Hello World from HMM model
38897000: system.cpu.l1i.prefetcher: Hello World from HMM model
38918000: system.cpu.l1d.prefetcher: Hello World from HMM model
38961000: system.cpu.l1i.prefetcher: Hello World from HMM model
39307000: system.cpu.l1i.prefetcher: Hello World from HMM model
39380000: system.cpu.l1i.prefetcher: Hello World from HMM model
39727000: system.cpu.l1i.prefetcher: Hello World from HMM model
39801000: system.cpu.l1i.prefetcher: Hello World from HMM model
39865000: system.cpu.l1i.prefetcher: Hello World from HMM model
39942000: system.cpu.l1i.prefetcher: Hello World from HMM model
40006000: system.cpu.l1i.prefetcher: Hello World from HMM model
40014000: system.cpu.l1d.prefetcher: Hello World from HMM model
40019000: system.cpu.l1d.prefetcher: Hello World from HMM model
40070000: system.cpu.l1i.prefetcher: Hello World from HMM model
40134000: system.cpu.l1i.prefetcher: Hello World from HMM model
40198000: system.cpu.l1i.prefetcher: Hello World from HMM model
40264000: system.cpu.l1i.prefetcher: Hello World from HMM model
40351000: system.cpu.l1i.prefetcher: Hello World from HMM model
40415000: system.cpu.l1i.prefetcher: Hello World from HMM model
40489000: system.cpu.l1i.prefetcher: Hello World from HMM model
40580000: system.cpu.l1i.prefetcher: Hello World from HMM model
40644000: system.cpu.l1i.prefetcher: Hello World from HMM model
40712000: system.cpu.l1i.prefetcher: Hello World from HMM model
40786000: system.cpu.l1i.prefetcher: Hello World from HMM model
40854000: system.cpu.l1i.prefetcher: Hello World from HMM model
40948000: system.cpu.l1i.prefetcher: Hello World from HMM model
41483000: system.cpu.l1i.prefetcher: Hello World from HMM model
41558000: system.cpu.l1i.prefetcher: Hello World from HMM model
41655000: system.cpu.l1i.prefetcher: Hello World from HMM model
41772000: system.cpu.l1i.prefetcher: Hello World from HMM model
41849000: system.cpu.l1i.prefetcher: Hello World from HMM model
41949000: system.cpu.l1i.prefetcher: Hello World from HMM model
42030000: system.cpu.l1i.prefetcher: Hello World from HMM model
42094000: system.cpu.l1i.prefetcher: Hello World from HMM model
42570000: system.cpu.l1i.prefetcher: Hello World from HMM model
42747000: system.cpu.l1i.prefetcher: Hello World from HMM model
42830000: system.cpu.l1i.prefetcher: Hello World from HMM model
43083000: system.cpu.l1d.prefetcher: Hello World from HMM model
43528000: system.cpu.l1i.prefetcher: Hello World from HMM model
43611000: system.cpu.l1i.prefetcher: Hello World from HMM model
44338000: system.cpu.l1i.prefetcher: Hello World from HMM model
44404000: system.cpu.l1i.prefetcher: Hello World from HMM model
44472000: system.cpu.l1i.prefetcher: Hello World from HMM model
44724000: system.cpu.l1i.prefetcher: Hello World from HMM model
44788000: system.cpu.l1i.prefetcher: Hello World from HMM model
44852000: system.cpu.l1i.prefetcher: Hello World from HMM model
44875000: system.cpu.l1d.prefetcher: Hello World from HMM model
44916000: system.cpu.l1i.prefetcher: Hello World from HMM model
44980000: system.cpu.l1i.prefetcher: Hello World from HMM model
45071000: system.cpu.l1i.prefetcher: Hello World from HMM model
45135000: system.cpu.l1i.prefetcher: Hello World from HMM model
45209000: system.cpu.l1d.prefetcher: Hello World from HMM model
45332000: system.cpu.l1i.prefetcher: Hello World from HMM model
45400000: system.cpu.l1i.prefetcher: Hello World from HMM model
45476000: system.cpu.l1i.prefetcher: Hello World from HMM model
45540000: system.cpu.l1i.prefetcher: Hello World from HMM model
45604000: system.cpu.l1i.prefetcher: Hello World from HMM model
45668000: system.cpu.l1i.prefetcher: Hello World from HMM model
45736000: system.cpu.l1i.prefetcher: Hello World from HMM model
45800000: system.cpu.l1i.prefetcher: Hello World from HMM model
45864000: system.cpu.l1i.prefetcher: Hello World from HMM model
45928000: system.cpu.l1i.prefetcher: Hello World from HMM model
45992000: system.cpu.l1i.prefetcher: Hello World from HMM model
46178000: system.cpu.l1i.prefetcher: Hello World from HMM model
46242000: system.cpu.l1i.prefetcher: Hello World from HMM model
46306000: system.cpu.l1i.prefetcher: Hello World from HMM model
46383000: system.cpu.l1i.prefetcher: Hello World from HMM model
46447000: system.cpu.l1i.prefetcher: Hello World from HMM model
46511000: system.cpu.l1i.prefetcher: Hello World from HMM model
46575000: system.cpu.l1i.prefetcher: Hello World from HMM model
46639000: system.cpu.l1i.prefetcher: Hello World from HMM model
46703000: system.cpu.l1i.prefetcher: Hello World from HMM model
46769000: system.cpu.l1i.prefetcher: Hello World from HMM model
47061000: system.cpu.l1i.prefetcher: Hello World from HMM model
47134000: system.cpu.l1i.prefetcher: Hello World from HMM model
47200000: system.cpu.l1i.prefetcher: Hello World from HMM model
47264000: system.cpu.l1i.prefetcher: Hello World from HMM model
47274000: system.cpu.l1d.prefetcher: Hello World from HMM model
47337000: system.cpu.l1i.prefetcher: Hello World from HMM model
47430000: system.cpu.l1i.prefetcher: Hello World from HMM model
47513000: system.cpu.l1i.prefetcher: Hello World from HMM model
47687000: system.cpu.l1d.prefetcher: Hello World from HMM model
47689000: system.cpu.l1d.prefetcher: Hello World from HMM model
47763000: system.cpu.l1d.prefetcher: Hello World from HMM model
47895000: system.cpu.l1d.prefetcher: Hello World from HMM model
47979000: system.cpu.l1i.prefetcher: Hello World from HMM model
48043000: system.cpu.l1i.prefetcher: Hello World from HMM model
48107000: system.cpu.l1i.prefetcher: Hello World from HMM model
48233000: system.cpu.l1d.prefetcher: Hello World from HMM model
48325000: system.cpu.l1i.prefetcher: Hello World from HMM model
48398000: system.cpu.l1i.prefetcher: Hello World from HMM model
48543000: system.cpu.l1i.prefetcher: Hello World from HMM model
48927000: system.cpu.l1i.prefetcher: Hello World from HMM model
49033000: system.cpu.l1d.prefetcher: Hello World from HMM model
49049000: system.cpu.l1d.prefetcher: Hello World from HMM model
49660000: system.cpu.l1i.prefetcher: Hello World from HMM model
49903000: system.cpu.l1i.prefetcher: Hello World from HMM model
50164000: system.cpu.l1d.prefetcher: Hello World from HMM model
50251000: system.cpu.l1d.prefetcher: Hello World from HMM model
50251000: system.cpu.l1i.prefetcher: Hello World from HMM model
50644000: system.cpu.l1d.prefetcher: Hello World from HMM model
50730000: system.cpu.l1i.prefetcher: Hello World from HMM model
50757000: system.cpu.l1d.prefetcher: Hello World from HMM model
50847000: system.cpu.l1i.prefetcher: Hello World from HMM model
50864000: system.cpu.l1d.prefetcher: Hello World from HMM model
50911000: system.cpu.l1i.prefetcher: Hello World from HMM model
50940000: system.cpu.l1d.prefetcher: Hello World from HMM model
51005000: system.cpu.l1d.prefetcher: Hello World from HMM model
51005000: system.cpu.l1i.prefetcher: Hello World from HMM model
51006000: system.cpu.l1d.prefetcher: Hello World from HMM model
51168000: system.cpu.l1d.prefetcher: Hello World from HMM model
51173000: system.cpu.l1d.prefetcher: Hello World from HMM model
51297000: system.cpu.l1d.prefetcher: Hello World from HMM model
51323000: system.cpu.l1d.prefetcher: Hello World from HMM model
51470000: system.cpu.l1d.prefetcher: Hello World from HMM model
51491000: system.cpu.l1i.prefetcher: Hello World from HMM model
51572000: system.cpu.l1i.prefetcher: Hello World from HMM model
51951000: system.cpu.l1d.prefetcher: Hello World from HMM model
52149000: system.cpu.l1i.prefetcher: Hello World from HMM model
52547000: system.cpu.l1d.prefetcher: Hello World from HMM model
52547000: system.cpu.l1d.prefetcher: Hello World from HMM model
52638000: system.cpu.l1i.prefetcher: Hello World from HMM model
52790000: system.cpu.l1i.prefetcher: Hello World from HMM model
52881000: system.cpu.l1i.prefetcher: Hello World from HMM model
53191000: system.cpu.l1i.prefetcher: Hello World from HMM model
53262000: system.cpu.l1i.prefetcher: Hello World from HMM model
53267000: system.cpu.l1d.prefetcher: Hello World from HMM model
53605000: system.cpu.l1d.prefetcher: Hello World from HMM model
53726000: system.cpu.l1d.prefetcher: Hello World from HMM model
53727000: system.cpu.l1d.prefetcher: Hello World from HMM model
53836000: system.cpu.l1i.prefetcher: Hello World from HMM model
53913000: system.cpu.l1i.prefetcher: Hello World from HMM model
53977000: system.cpu.l1i.prefetcher: Hello World from HMM model
54045000: system.cpu.l1i.prefetcher: Hello World from HMM model
54109000: system.cpu.l1i.prefetcher: Hello World from HMM model
54200000: system.cpu.l1i.prefetcher: Hello World from HMM model
54268000: system.cpu.l1i.prefetcher: Hello World from HMM model
54340000: system.cpu.l1i.prefetcher: Hello World from HMM model
54457000: system.cpu.l1i.prefetcher: Hello World from HMM model
54548000: system.cpu.l1i.prefetcher: Hello World from HMM model
54865000: system.cpu.l1i.prefetcher: Hello World from HMM model
54942000: system.cpu.l1i.prefetcher: Hello World from HMM model
55006000: system.cpu.l1i.prefetcher: Hello World from HMM model
55016000: system.cpu.l1d.prefetcher: Hello World from HMM model
55016000: system.cpu.l1d.prefetcher: Hello World from HMM model
55070000: system.cpu.l1i.prefetcher: Hello World from HMM model
55138000: system.cpu.l1i.prefetcher: Hello World from HMM model
55201000: system.cpu.l1i.prefetcher: Hello World from HMM model
55269000: system.cpu.l1i.prefetcher: Hello World from HMM model
55276000: system.cpu.l1d.prefetcher: Hello World from HMM model
55280000: system.cpu.l1d.prefetcher: Hello World from HMM model
55333000: system.cpu.l1i.prefetcher: Hello World from HMM model
55410000: system.cpu.l1i.prefetcher: Hello World from HMM model
55501000: system.cpu.l1i.prefetcher: Hello World from HMM model
55578000: system.cpu.l1i.prefetcher: Hello World from HMM model
55585000: system.cpu.l1d.prefetcher: Hello World from HMM model
55642000: system.cpu.l1i.prefetcher: Hello World from HMM model
55647000: system.cpu.l1d.prefetcher: Hello World from HMM model
55706000: system.cpu.l1i.prefetcher: Hello World from HMM model
55808000: system.cpu.l1i.prefetcher: Hello World from HMM model
55899000: system.cpu.l1i.prefetcher: Hello World from HMM model
55976000: system.cpu.l1i.prefetcher: Hello World from HMM model
56040000: system.cpu.l1i.prefetcher: Hello World from HMM model
56045000: system.cpu.l1d.prefetcher: Hello World from HMM model
56104000: system.cpu.l1i.prefetcher: Hello World from HMM model
56168000: system.cpu.l1i.prefetcher: Hello World from HMM model
56232000: system.cpu.l1i.prefetcher: Hello World from HMM model
56237000: system.cpu.l1d.prefetcher: Hello World from HMM model
56296000: system.cpu.l1i.prefetcher: Hello World from HMM model
56307000: system.cpu.l1d.prefetcher: Hello World from HMM model
56360000: system.cpu.l1i.prefetcher: Hello World from HMM model
56430000: system.cpu.l1i.prefetcher: Hello World from HMM model
56496000: system.cpu.l1i.prefetcher: Hello World from HMM model
56586000: system.cpu.l1i.prefetcher: Hello World from HMM model
56657000: system.cpu.l1i.prefetcher: Hello World from HMM model
56671000: system.cpu.l1d.prefetcher: Hello World from HMM model
56672000: system.cpu.l1d.prefetcher: Hello World from HMM model
56739000: system.cpu.l1i.prefetcher: Hello World from HMM model
56828000: system.cpu.l1i.prefetcher: Hello World from HMM model
56844000: system.cpu.l1i.prefetcher: Hello World from HMM model
56939000: system.cpu.l1i.prefetcher: Hello World from HMM model
57003000: system.cpu.l1i.prefetcher: Hello World from HMM model
57123000: system.cpu.l1i.prefetcher: Hello World from HMM model
57187000: system.cpu.l1i.prefetcher: Hello World from HMM model
57251000: system.cpu.l1i.prefetcher: Hello World from HMM model
57315000: system.cpu.l1i.prefetcher: Hello World from HMM model
57406000: system.cpu.l1i.prefetcher: Hello World from HMM model
57411000: system.cpu.l1d.prefetcher: Hello World from HMM model
57470000: system.cpu.l1i.prefetcher: Hello World from HMM model
57561000: system.cpu.l1i.prefetcher: Hello World from HMM model
57625000: system.cpu.l1i.prefetcher: Hello World from HMM model
57638000: system.cpu.l1d.prefetcher: Hello World from HMM model
57639000: system.cpu.l1d.prefetcher: Hello World from HMM model
57689000: system.cpu.l1i.prefetcher: Hello World from HMM model
57760000: system.cpu.l1d.prefetcher: Hello World from HMM model
57907000: system.cpu.l1i.prefetcher: Hello World from HMM model
57976000: system.cpu.l1i.prefetcher: Hello World from HMM model
58067000: system.cpu.l1i.prefetcher: Hello World from HMM model
58131000: system.cpu.l1i.prefetcher: Hello World from HMM model
58195000: system.cpu.l1i.prefetcher: Hello World from HMM model
58259000: system.cpu.l1i.prefetcher: Hello World from HMM model
58323000: system.cpu.l1i.prefetcher: Hello World from HMM model
58400000: system.cpu.l1d.prefetcher: Hello World from HMM model
58578000: system.cpu.l1i.prefetcher: Hello World from HMM model
58680000: system.cpu.l1i.prefetcher: Hello World from HMM model
58782000: system.cpu.l1i.prefetcher: Hello World from HMM model
58846000: system.cpu.l1i.prefetcher: Hello World from HMM model
58910000: system.cpu.l1i.prefetcher: Hello World from HMM model
58978000: system.cpu.l1i.prefetcher: Hello World from HMM model
59046000: system.cpu.l1i.prefetcher: Hello World from HMM model
59128000: system.cpu.l1i.prefetcher: Hello World from HMM model
59204000: system.cpu.l1i.prefetcher: Hello World from HMM model
59295000: system.cpu.l1i.prefetcher: Hello World from HMM model
59361000: system.cpu.l1i.prefetcher: Hello World from HMM model
59425000: system.cpu.l1i.prefetcher: Hello World from HMM model
59429000: system.cpu.l1d.prefetcher: Hello World from HMM model
59435000: system.cpu.l1d.prefetcher: Hello World from HMM model
59493000: system.cpu.l1i.prefetcher: Hello World from HMM model
59564000: system.cpu.l1d.prefetcher: Hello World from HMM model
59641000: system.cpu.l1d.prefetcher: Hello World from HMM model
59717000: system.cpu.l1i.prefetcher: Hello World from HMM model
59808000: system.cpu.l1i.prefetcher: Hello World from HMM model
59888000: system.cpu.l1i.prefetcher: Hello World from HMM model
59903000: system.cpu.l1i.prefetcher: Hello World from HMM model
166742000: system.cpu.l1i.prefetcher: Hello World from HMM model
166762000: system.cpu.l1d.prefetcher: Hello World from HMM model
166819000: system.cpu.l1i.prefetcher: Hello World from HMM model
166895000: system.cpu.l1i.prefetcher: Hello World from HMM model
166967000: system.cpu.l1i.prefetcher: Hello World from HMM model
167046000: system.cpu.l1i.prefetcher: Hello World from HMM model
167123000: system.cpu.l1i.prefetcher: Hello World from HMM model
167205000: system.cpu.l1d.prefetcher: Hello World from HMM model
167358000: system.cpu.l1i.prefetcher: Hello World from HMM model
167412000: system.cpu.l1i.prefetcher: Hello World from HMM model
167489000: system.cpu.l1i.prefetcher: Hello World from HMM model
167553000: system.cpu.l1i.prefetcher: Hello World from HMM model
167630000: system.cpu.l1i.prefetcher: Hello World from HMM model
167698000: system.cpu.l1i.prefetcher: Hello World from HMM model
167766000: system.cpu.l1i.prefetcher: Hello World from HMM model
167885000: system.cpu.l1i.prefetcher: Hello World from HMM model
167949000: system.cpu.l1i.prefetcher: Hello World from HMM model
168026000: system.cpu.l1i.prefetcher: Hello World from HMM model
168094000: system.cpu.l1i.prefetcher: Hello World from HMM model
168188000: system.cpu.l1i.prefetcher: Hello World from HMM model
168281000: system.cpu.l1i.prefetcher: Hello World from HMM model
168372000: system.cpu.l1i.prefetcher: Hello World from HMM model
168396000: system.cpu.l1d.prefetcher: Hello World from HMM model
168436000: system.cpu.l1i.prefetcher: Hello World from HMM model
168500000: system.cpu.l1i.prefetcher: Hello World from HMM model
168577000: system.cpu.l1i.prefetcher: Hello World from HMM model
168641000: system.cpu.l1i.prefetcher: Hello World from HMM model
168705000: system.cpu.l1i.prefetcher: Hello World from HMM model
168769000: system.cpu.l1i.prefetcher: Hello World from HMM model
168833000: system.cpu.l1i.prefetcher: Hello World from HMM model
168897000: system.cpu.l1i.prefetcher: Hello World from HMM model
168961000: system.cpu.l1i.prefetcher: Hello World from HMM model
169029000: system.cpu.l1i.prefetcher: Hello World from HMM model
169033000: system.cpu.l1d.prefetcher: Hello World from HMM model
169093000: system.cpu.l1i.prefetcher: Hello World from HMM model
169127000: system.cpu.l1d.prefetcher: Hello World from HMM model
169157000: system.cpu.l1i.prefetcher: Hello World from HMM model
169221000: system.cpu.l1i.prefetcher: Hello World from HMM model
169287000: system.cpu.l1i.prefetcher: Hello World from HMM model
169351000: system.cpu.l1i.prefetcher: Hello World from HMM model
169354000: system.cpu.l1d.prefetcher: Hello World from HMM model
169417000: system.cpu.l1d.prefetcher: Hello World from HMM model
169418000: system.cpu.l1d.prefetcher: Hello World from HMM model
169510000: system.cpu.l1d.prefetcher: Hello World from HMM model
169576000: system.cpu.l1d.prefetcher: Hello World from HMM model
169639000: system.cpu.l1d.prefetcher: Hello World from HMM model
169702000: system.cpu.l1d.prefetcher: Hello World from HMM model
169703000: system.cpu.l1d.prefetcher: Hello World from HMM model
169794000: system.cpu.l1d.prefetcher: Hello World from HMM model
169860000: system.cpu.l1d.prefetcher: Hello World from HMM model
169923000: system.cpu.l1d.prefetcher: Hello World from HMM model
170018000: system.cpu.l1d.prefetcher: Hello World from HMM model
170116000: system.cpu.l1i.prefetcher: Hello World from HMM model
170219000: system.cpu.l1i.prefetcher: Hello World from HMM model
170283000: system.cpu.l1i.prefetcher: Hello World from HMM model
170360000: system.cpu.l1i.prefetcher: Hello World from HMM model
170430000: system.cpu.l1i.prefetcher: Hello World from HMM model
170498000: system.cpu.l1i.prefetcher: Hello World from HMM model
170572000: system.cpu.l1i.prefetcher: Hello World from HMM model
170654000: system.cpu.l1d.prefetcher: Hello World from HMM model
170727000: system.cpu.l1i.prefetcher: Hello World from HMM model
170791000: system.cpu.l1i.prefetcher: Hello World from HMM model
170855000: system.cpu.l1i.prefetcher: Hello World from HMM model
170938000: system.cpu.l1i.prefetcher: Hello World from HMM model
171018000: system.cpu.l1i.prefetcher: Hello World from HMM model
171095000: system.cpu.l1i.prefetcher: Hello World from HMM model
171163000: system.cpu.l1i.prefetcher: Hello World from HMM model
Exit Eventexiting with last active thread context
Dump stats at the end of the ROI!
