gem5 Simulator System.  http://gem5.org
gem5 is copyrighted software; use the --copyright option for details.

gem5 version 20.1.0.2
gem5 compiled Dec  7 2021 06:48:41
gem5 started Dec  7 2021 06:49:27
gem5 executing on ARCH-750, pid 878610
command line: /data/home/ycc32/450_project/gem5/build/X86/gem5.opt --debug-flags=HWPrefetch -re --outdir=/data/home/ycc32/450_project/gem5/results/X86/run_micro/CCa/Minor4/Slow/DDR3_2133_8x8/1GHz gem5-config/run_micro.py Minor4 Slow microbenchmark/CCa/bench.X86 DDR3_2133_8x8 --clock=1GHz

1GHz CPU speed and DRAM = DDR3_2133_8x8
system.py: init L2 cache with size 1MB
Global frequency set at 1000000000000 ticks per second
   1000: system.cpu.l1i.prefetcher: PC:   0X401BE0
   1000: system.cpu.l1i.prefetcher: Spatial Region address:        0X3
   1000: system.cpu.l1i.prefetcher: Spatial Region physical address:     0X1BC0
   1000: system.cpu.l1i.prefetcher: Spatial Region offset:        0XF
  79000: system.cpu.l1i.prefetcher: PC:   0X401C00
  79000: system.cpu.l1i.prefetcher: Spatial Region address:        0X3
  79000: system.cpu.l1i.prefetcher: Spatial Region physical address:     0X1C00
  79000: system.cpu.l1i.prefetcher: Spatial Region offset:       0X10
  82000: system.cpu.l1d.prefetcher: PC:   0X401BE9
  82000: system.cpu.l1d.prefetcher: Spatial Region address:      0X187
  82000: system.cpu.l1d.prefetcher: Spatial Region physical address:    0XC3E40
  82000: system.cpu.l1d.prefetcher: Spatial Region offset:       0X19
 143000: system.cpu.l1i.prefetcher: PC:   0X401C40
 143000: system.cpu.l1i.prefetcher: Spatial Region address:        0X3
 143000: system.cpu.l1i.prefetcher: Spatial Region physical address:     0X1C40
 143000: system.cpu.l1i.prefetcher: Spatial Region offset:       0X11
 161000: system.cpu.l1d.prefetcher: PC:   0X401BF1
 161000: system.cpu.l1d.prefetcher: Spatial Region address:      0X187
 161000: system.cpu.l1d.prefetcher: Spatial Region physical address:    0XC3E38
 161000: system.cpu.l1d.prefetcher: Spatial Region offset:       0X18
 162000: system.cpu.l1d.prefetcher: PC:   0X401BF2
 162000: system.cpu.l1d.prefetcher: Spatial Region address:      0X187
 162000: system.cpu.l1d.prefetcher: Spatial Region physical address:    0XC3E30
 162000: system.cpu.l1d.prefetcher: Spatial Region offset:       0X18
 207000: system.cpu.l1i.prefetcher: PC:   0X4020D0
 207000: system.cpu.l1i.prefetcher: Spatial Region address:        0X4
 207000: system.cpu.l1i.prefetcher: Spatial Region physical address:     0X20C0
 207000: system.cpu.l1i.prefetcher: Spatial Region offset:        0X3
 298000: system.cpu.l1i.prefetcher: PC:   0X402100
 298000: system.cpu.l1i.prefetcher: Spatial Region address:        0X4
 298000: system.cpu.l1i.prefetcher: Spatial Region physical address:     0X2100
 298000: system.cpu.l1i.prefetcher: Spatial Region offset:        0X4
 318000: system.cpu.l1d.prefetcher: PC:   0X4020EE
 318000: system.cpu.l1d.prefetcher: Spatial Region address:      0X187
 318000: system.cpu.l1d.prefetcher: Spatial Region physical address:    0XC3D30
 318000: system.cpu.l1d.prefetcher: Spatial Region offset:       0X14
 321000: system.cpu.l1d.prefetcher: PC:   0X4020FA
 321000: system.cpu.l1d.prefetcher: Spatial Region address:      0X187
 321000: system.cpu.l1d.prefetcher: Spatial Region physical address:    0XC3D38
 321000: system.cpu.l1d.prefetcher: Spatial Region offset:       0X14
 362000: system.cpu.l1i.prefetcher: PC:   0X402140
 362000: system.cpu.l1i.prefetcher: Spatial Region address:        0X4
 362000: system.cpu.l1i.prefetcher: Spatial Region physical address:     0X2140
 362000: system.cpu.l1i.prefetcher: Spatial Region offset:        0X5
 459000: system.cpu.l1i.prefetcher: PC:   0X402180
 459000: system.cpu.l1i.prefetcher: Spatial Region address:        0X4
 459000: system.cpu.l1i.prefetcher: Spatial Region physical address:     0X2180
 459000: system.cpu.l1i.prefetcher: Spatial Region offset:        0X6
 463000: system.cpu.l1d.prefetcher: PC:   0X402111
 463000: system.cpu.l1d.prefetcher: Spatial Region address:      0X180
 463000: system.cpu.l1d.prefetcher: Spatial Region physical address:    0XC06C8
 463000: system.cpu.l1d.prefetcher: Spatial Region offset:       0X1B
 528000: system.cpu.l1i.prefetcher: PC:   0X401C80
 528000: system.cpu.l1i.prefetcher: Spatial Region address:        0X3
 528000: system.cpu.l1i.prefetcher: Spatial Region physical address:     0X1C80
 528000: system.cpu.l1i.prefetcher: Spatial Region offset:       0X12
 626000: system.cpu.l1i.prefetcher: PC:   0X4021C0
 626000: system.cpu.l1i.prefetcher: Spatial Region address:        0X4
 626000: system.cpu.l1i.prefetcher: Spatial Region physical address:     0X21C0
 626000: system.cpu.l1i.prefetcher: Spatial Region offset:        0X7
 630000: system.cpu.l1d.prefetcher: PC:   0X402133
 630000: system.cpu.l1d.prefetcher: Spatial Region address:      0X183
 630000: system.cpu.l1d.prefetcher: Spatial Region physical address:    0XC1CE8
 630000: system.cpu.l1d.prefetcher: Spatial Region offset:       0X13
 633000: system.cpu.l1d.prefetcher: PC:   0X40213A
 633000: system.cpu.l1d.prefetcher: Spatial Region address:      0X17D
 633000: system.cpu.l1d.prefetcher: Spatial Region physical address:    0XBEA70
 633000: system.cpu.l1d.prefetcher: Spatial Region offset:        0X9
 690000: system.cpu.l1i.prefetcher: PC:   0X402200
 690000: system.cpu.l1i.prefetcher: Spatial Region address:        0X4
 690000: system.cpu.l1i.prefetcher: Spatial Region physical address:     0X2200
 690000: system.cpu.l1i.prefetcher: Spatial Region offset:        0X8
 754000: system.cpu.l1i.prefetcher: PC:   0X44C3D0
 754000: system.cpu.l1i.prefetcher: Spatial Region address:       0X98
 754000: system.cpu.l1i.prefetcher: Spatial Region physical address:    0X4C3C0
 754000: system.cpu.l1i.prefetcher: Spatial Region offset:        0XF
 831000: system.cpu.l1i.prefetcher: PC:   0X44C400
 831000: system.cpu.l1i.prefetcher: Spatial Region address:       0X98
 831000: system.cpu.l1i.prefetcher: Spatial Region physical address:    0X4C400
 831000: system.cpu.l1i.prefetcher: Spatial Region offset:       0X10
 838000: system.cpu.l1d.prefetcher: PC:   0X44C3D7
 838000: system.cpu.l1d.prefetcher: Spatial Region address:      0X184
 838000: system.cpu.l1d.prefetcher: Spatial Region physical address:    0XC27E0
 838000: system.cpu.l1d.prefetcher: Spatial Region offset:       0X1F
 844000: system.cpu.l1d.prefetcher: PC:   0X44C3E9
 844000: system.cpu.l1d.prefetcher: Spatial Region address:      0X183
 844000: system.cpu.l1d.prefetcher: Spatial Region physical address:    0XC1D00
 844000: system.cpu.l1d.prefetcher: Spatial Region offset:       0X14
 895000: system.cpu.l1i.prefetcher: PC:   0X44C440
 895000: system.cpu.l1i.prefetcher: Spatial Region address:       0X98
 895000: system.cpu.l1i.prefetcher: Spatial Region physical address:    0X4C440
 895000: system.cpu.l1i.prefetcher: Spatial Region offset:       0X11
 933000: system.cpu.l1d.prefetcher: PC:   0X44C3F8
 933000: system.cpu.l1d.prefetcher: Spatial Region address:      0X185
 933000: system.cpu.l1d.prefetcher: Spatial Region physical address:    0XC2890
 933000: system.cpu.l1d.prefetcher: Spatial Region offset:        0X2
 959000: system.cpu.l1i.prefetcher: PC:   0X44C480
 959000: system.cpu.l1i.prefetcher: Spatial Region address:       0X98
 959000: system.cpu.l1i.prefetcher: Spatial Region physical address:    0X4C480
 959000: system.cpu.l1i.prefetcher: Spatial Region offset:       0X12
 998000: system.cpu.l1d.prefetcher: PC:   0X44C406
 998000: system.cpu.l1d.prefetcher: Spatial Region address:      0X180
 998000: system.cpu.l1d.prefetcher: Spatial Region physical address:    0XC0118
 998000: system.cpu.l1d.prefetcher: Spatial Region offset:        0X4
1023000: system.cpu.l1i.prefetcher: PC:   0X44C4C0
1023000: system.cpu.l1i.prefetcher: Spatial Region address:       0X98
1023000: system.cpu.l1i.prefetcher: Spatial Region physical address:    0X4C4C0
1023000: system.cpu.l1i.prefetcher: Spatial Region offset:       0X13
1062000: system.cpu.l1d.prefetcher: PC:   0X44C414
1062000: system.cpu.l1d.prefetcher: Spatial Region address:      0X185
1062000: system.cpu.l1d.prefetcher: Spatial Region physical address:    0XC2848
1062000: system.cpu.l1d.prefetcher: Spatial Region offset:        0X1
1125000: system.cpu.l1d.prefetcher: PC:   0X44C41B
1125000: system.cpu.l1d.prefetcher: Spatial Region address:      0X185
1125000: system.cpu.l1d.prefetcher: Spatial Region physical address:    0XC2810
1125000: system.cpu.l1d.prefetcher: Spatial Region offset:          0
1190000: system.cpu.l1d.prefetcher: PC:   0X44C422
1190000: system.cpu.l1d.prefetcher: Spatial Region address:      0X187
1190000: system.cpu.l1d.prefetcher: Spatial Region physical address:    0XC3CF8
1190000: system.cpu.l1d.prefetcher: Spatial Region offset:       0X13
1191000: system.cpu.l1d.prefetcher: PC:   0X44C427
1191000: system.cpu.l1d.prefetcher: Spatial Region address:      0X187
1191000: system.cpu.l1d.prefetcher: Spatial Region physical address:    0XC3CF0
1191000: system.cpu.l1d.prefetcher: Spatial Region offset:       0X13
1259000: system.cpu.l1d.prefetcher: PC:   0X44C43B
1259000: system.cpu.l1d.prefetcher: Spatial Region address:      0X17D
1259000: system.cpu.l1d.prefetcher: Spatial Region physical address:    0XBEAA0
1259000: system.cpu.l1d.prefetcher: Spatial Region offset:        0XA
1260000: system.cpu.l1i.prefetcher: PC:   0X44C500
1260000: system.cpu.l1i.prefetcher: Spatial Region address:       0X98
1260000: system.cpu.l1i.prefetcher: Spatial Region physical address:    0X4C500
1260000: system.cpu.l1i.prefetcher: Spatial Region offset:       0X14
1353000: system.cpu.l1i.prefetcher: PC:   0X44C540
1353000: system.cpu.l1i.prefetcher: Spatial Region address:       0X98
1353000: system.cpu.l1i.prefetcher: Spatial Region physical address:    0X4C540
1353000: system.cpu.l1i.prefetcher: Spatial Region offset:       0X15
1358000: system.cpu.l1d.prefetcher: PC:   0X44C494
1358000: system.cpu.l1d.prefetcher: Spatial Region address:      0X187
1358000: system.cpu.l1d.prefetcher: Spatial Region physical address:    0XC3CB8
1358000: system.cpu.l1d.prefetcher: Spatial Region offset:       0X12
1359000: system.cpu.l1d.prefetcher: PC:   0X44C49B
1359000: system.cpu.l1d.prefetcher: Spatial Region address:      0X187
1359000: system.cpu.l1d.prefetcher: Spatial Region physical address:    0XC3CB0
1359000: system.cpu.l1d.prefetcher: Spatial Region offset:       0X12
1421000: system.cpu.l1d.prefetcher: PC:   0X44C4B2
1421000: system.cpu.l1d.prefetcher: Spatial Region address:      0X131
1421000: system.cpu.l1d.prefetcher: Spatial Region physical address:    0X98FB8
1421000: system.cpu.l1d.prefetcher: Spatial Region offset:       0X1E
1500000: system.cpu.l1i.prefetcher: PC:   0X44C5C0
1500000: system.cpu.l1i.prefetcher: Spatial Region address:       0X98
1500000: system.cpu.l1i.prefetcher: Spatial Region physical address:    0X4C5C0
1500000: system.cpu.l1i.prefetcher: Spatial Region offset:       0X17
1564000: system.cpu.l1i.prefetcher: PC:   0X44C600
1564000: system.cpu.l1i.prefetcher: Spatial Region address:       0X98
1564000: system.cpu.l1i.prefetcher: Spatial Region physical address:    0X4C600
1564000: system.cpu.l1i.prefetcher: Spatial Region offset:       0X18
1637000: system.cpu.l1d.prefetcher: PC:   0X44C4B2
1637000: system.cpu.l1d.prefetcher: Spatial Region address:      0X131
1637000: system.cpu.l1d.prefetcher: Spatial Region physical address:    0X98F74
1637000: system.cpu.l1d.prefetcher: Spatial Region offset:       0X1D
1703000: system.cpu.l1i.prefetcher: PC:   0X44C690
1703000: system.cpu.l1i.prefetcher: Spatial Region address:       0X98
1703000: system.cpu.l1i.prefetcher: Spatial Region physical address:    0X4C680
1703000: system.cpu.l1i.prefetcher: Spatial Region offset:       0X1A
1767000: system.cpu.l1i.prefetcher: PC:   0X44C6C0
1767000: system.cpu.l1i.prefetcher: Spatial Region address:       0X98
1767000: system.cpu.l1i.prefetcher: Spatial Region physical address:    0X4C6C0
1767000: system.cpu.l1i.prefetcher: Spatial Region offset:       0X1B
1776000: system.cpu.l1d.prefetcher: PC:   0X44C6A2
1776000: system.cpu.l1d.prefetcher: Spatial Region address:      0X187
1776000: system.cpu.l1d.prefetcher: Spatial Region physical address:    0XC3E80
1776000: system.cpu.l1d.prefetcher: Spatial Region offset:       0X1A
1831000: system.cpu.l1i.prefetcher: PC:   0X44C700
1831000: system.cpu.l1i.prefetcher: Spatial Region address:       0X98
1831000: system.cpu.l1i.prefetcher: Spatial Region physical address:    0X4C700
1831000: system.cpu.l1i.prefetcher: Spatial Region offset:       0X1C
1910000: system.cpu.l1i.prefetcher: PC:   0X44C760
1910000: system.cpu.l1i.prefetcher: Spatial Region address:       0X98
1910000: system.cpu.l1i.prefetcher: Spatial Region physical address:    0X4C740
1910000: system.cpu.l1i.prefetcher: Spatial Region offset:       0X1D
1974000: system.cpu.l1i.prefetcher: PC:   0X44C780
1974000: system.cpu.l1i.prefetcher: Spatial Region address:       0X98
1974000: system.cpu.l1i.prefetcher: Spatial Region physical address:    0X4C780
1974000: system.cpu.l1i.prefetcher: Spatial Region offset:       0X1E
2038000: system.cpu.l1i.prefetcher: PC:   0X44C7C0
2038000: system.cpu.l1i.prefetcher: Spatial Region address:       0X98
2038000: system.cpu.l1i.prefetcher: Spatial Region physical address:    0X4C7C0
2038000: system.cpu.l1i.prefetcher: Spatial Region offset:       0X1F
2117000: system.cpu.l1i.prefetcher: PC:   0X44C668
2117000: system.cpu.l1i.prefetcher: Spatial Region address:       0X98
2117000: system.cpu.l1i.prefetcher: Spatial Region physical address:    0X4C640
2117000: system.cpu.l1i.prefetcher: Spatial Region offset:       0X19
2214000: system.cpu.l1i.prefetcher: PC:   0X44C800
2214000: system.cpu.l1i.prefetcher: Spatial Region address:       0X99
2214000: system.cpu.l1i.prefetcher: Spatial Region physical address:    0X4C800
2214000: system.cpu.l1i.prefetcher: Spatial Region offset:          0
2312000: system.cpu.l1d.prefetcher: PC:   0X44C4D0
2312000: system.cpu.l1d.prefetcher: Spatial Region address:      0X187
2312000: system.cpu.l1d.prefetcher: Spatial Region physical address:    0XC3EC0
2312000: system.cpu.l1d.prefetcher: Spatial Region offset:       0X1B
2318000: system.cpu.l1i.prefetcher: PC:   0X44C580
2318000: system.cpu.l1i.prefetcher: Spatial Region address:       0X98
2318000: system.cpu.l1i.prefetcher: Spatial Region physical address:    0X4C580
2318000: system.cpu.l1i.prefetcher: Spatial Region offset:       0X16
2409000: system.cpu.l1i.prefetcher: PC:   0X44C840
2409000: system.cpu.l1i.prefetcher: Spatial Region address:       0X99
2409000: system.cpu.l1i.prefetcher: Spatial Region physical address:    0X4C840
2409000: system.cpu.l1i.prefetcher: Spatial Region offset:        0X1
2561000: system.cpu.l1d.prefetcher: PC:   0X44C4D0
2561000: system.cpu.l1d.prefetcher: Spatial Region address:      0X187
2561000: system.cpu.l1d.prefetcher: Spatial Region physical address:    0XC3F00
2561000: system.cpu.l1d.prefetcher: Spatial Region offset:       0X1C
2749000: system.cpu.l1d.prefetcher: PC:   0X44C6E3
2749000: system.cpu.l1d.prefetcher: Spatial Region address:      0X187
2749000: system.cpu.l1d.prefetcher: Spatial Region physical address:    0XC3F40
2749000: system.cpu.l1d.prefetcher: Spatial Region offset:       0X1D
2951000: system.cpu.l1d.prefetcher: PC:   0X44C6CB
2951000: system.cpu.l1d.prefetcher: Spatial Region address:      0X187
2951000: system.cpu.l1d.prefetcher: Spatial Region physical address:    0XC3F80
2951000: system.cpu.l1d.prefetcher: Spatial Region offset:       0X1E
3043000: system.cpu.l1i.prefetcher: PC:   0X44C880
3043000: system.cpu.l1i.prefetcher: Spatial Region address:       0X99
3043000: system.cpu.l1i.prefetcher: Spatial Region physical address:    0X4C880
3043000: system.cpu.l1i.prefetcher: Spatial Region offset:        0X2
3254000: system.cpu.l1i.prefetcher: PC:   0X402240
3254000: system.cpu.l1i.prefetcher: Spatial Region address:        0X4
3254000: system.cpu.l1i.prefetcher: Spatial Region physical address:     0X2240
3254000: system.cpu.l1i.prefetcher: Spatial Region offset:        0X9
3345000: system.cpu.l1i.prefetcher: PC:   0X44D530
3345000: system.cpu.l1i.prefetcher: Spatial Region address:       0X9A
3345000: system.cpu.l1i.prefetcher: Spatial Region physical address:    0X4D500
3345000: system.cpu.l1i.prefetcher: Spatial Region offset:       0X14
3409000: system.cpu.l1i.prefetcher: PC:   0X44D540
3409000: system.cpu.l1i.prefetcher: Spatial Region address:       0X9A
3409000: system.cpu.l1i.prefetcher: Spatial Region physical address:    0X4D540
3409000: system.cpu.l1i.prefetcher: Spatial Region offset:       0X15
3487000: system.cpu.l1i.prefetcher: PC:   0X44BDD0
3487000: system.cpu.l1i.prefetcher: Spatial Region address:       0X97
3487000: system.cpu.l1i.prefetcher: Spatial Region physical address:    0X4BDC0
3487000: system.cpu.l1i.prefetcher: Spatial Region offset:       0X17
3564000: system.cpu.l1i.prefetcher: PC:   0X44BE00
3564000: system.cpu.l1i.prefetcher: Spatial Region address:       0X97
3564000: system.cpu.l1i.prefetcher: Spatial Region physical address:    0X4BE00
3564000: system.cpu.l1i.prefetcher: Spatial Region offset:       0X18
3628000: system.cpu.l1i.prefetcher: PC:   0X44BE40
3628000: system.cpu.l1i.prefetcher: Spatial Region address:       0X97
3628000: system.cpu.l1i.prefetcher: Spatial Region physical address:    0X4BE40
3628000: system.cpu.l1i.prefetcher: Spatial Region offset:       0X19
3692000: system.cpu.l1i.prefetcher: PC:   0X44BF1A
3692000: system.cpu.l1i.prefetcher: Spatial Region address:       0X97
3692000: system.cpu.l1i.prefetcher: Spatial Region physical address:    0X4BF00
3692000: system.cpu.l1i.prefetcher: Spatial Region offset:       0X1C
3756000: system.cpu.l1i.prefetcher: PC:   0X44BF40
3756000: system.cpu.l1i.prefetcher: Spatial Region address:       0X97
3756000: system.cpu.l1i.prefetcher: Spatial Region physical address:    0X4BF40
3756000: system.cpu.l1i.prefetcher: Spatial Region offset:       0X1D
3828000: system.cpu.l1d.prefetcher: PC:   0X4021A5
3828000: system.cpu.l1d.prefetcher: Spatial Region address:      0X187
3828000: system.cpu.l1d.prefetcher: Spatial Region physical address:    0XC3D4C
3828000: system.cpu.l1d.prefetcher: Spatial Region offset:       0X15
3842000: system.cpu.l1d.prefetcher: PC:   0X4021AF
3842000: system.cpu.l1d.prefetcher: Spatial Region address:      0X187
3842000: system.cpu.l1d.prefetcher: Spatial Region physical address:    0XC3D50
3842000: system.cpu.l1d.prefetcher: Spatial Region offset:       0X15
3850000: system.cpu.l1i.prefetcher: PC:   0X402280
3850000: system.cpu.l1i.prefetcher: Spatial Region address:        0X4
3850000: system.cpu.l1i.prefetcher: Spatial Region physical address:     0X2280
3850000: system.cpu.l1i.prefetcher: Spatial Region offset:        0XA
3918000: system.cpu.l1d.prefetcher: PC:   0X4021BF
3918000: system.cpu.l1d.prefetcher: Spatial Region address:      0X183
3918000: system.cpu.l1d.prefetcher: Spatial Region physical address:    0XC1D8C
3918000: system.cpu.l1d.prefetcher: Spatial Region offset:       0X16
3965000: system.cpu.l1i.prefetcher: PC:   0X40233D
3965000: system.cpu.l1i.prefetcher: Spatial Region address:        0X4
3965000: system.cpu.l1i.prefetcher: Spatial Region physical address:     0X2300
3965000: system.cpu.l1i.prefetcher: Spatial Region offset:        0XC
4029000: system.cpu.l1i.prefetcher: PC:   0X402340
4029000: system.cpu.l1i.prefetcher: Spatial Region address:        0X4
4029000: system.cpu.l1i.prefetcher: Spatial Region physical address:     0X2340
4029000: system.cpu.l1i.prefetcher: Spatial Region offset:        0XD
4093000: system.cpu.l1i.prefetcher: PC:   0X402380
4093000: system.cpu.l1i.prefetcher: Spatial Region address:        0X4
4093000: system.cpu.l1i.prefetcher: Spatial Region physical address:     0X2380
4093000: system.cpu.l1i.prefetcher: Spatial Region offset:        0XE
4157000: system.cpu.l1i.prefetcher: PC:   0X402893
4157000: system.cpu.l1i.prefetcher: Spatial Region address:        0X5
4157000: system.cpu.l1i.prefetcher: Spatial Region physical address:     0X2880
4157000: system.cpu.l1i.prefetcher: Spatial Region offset:        0X2
4221000: system.cpu.l1i.prefetcher: PC:   0X4028C0
4221000: system.cpu.l1i.prefetcher: Spatial Region address:        0X5
4221000: system.cpu.l1i.prefetcher: Spatial Region physical address:     0X28C0
4221000: system.cpu.l1i.prefetcher: Spatial Region offset:        0X3
4300000: system.cpu.l1i.prefetcher: PC:   0X401D50
4300000: system.cpu.l1i.prefetcher: Spatial Region address:        0X3
4300000: system.cpu.l1i.prefetcher: Spatial Region physical address:     0X1D40
4300000: system.cpu.l1i.prefetcher: Spatial Region offset:       0X15
4391000: system.cpu.l1i.prefetcher: PC:   0X401D80
4391000: system.cpu.l1i.prefetcher: Spatial Region address:        0X3
4391000: system.cpu.l1i.prefetcher: Spatial Region physical address:     0X1D80
4391000: system.cpu.l1i.prefetcher: Spatial Region offset:       0X16
4457000: system.cpu.l1i.prefetcher: PC:   0X401DC0
4457000: system.cpu.l1i.prefetcher: Spatial Region address:        0X3
4457000: system.cpu.l1i.prefetcher: Spatial Region physical address:     0X1DC0
4457000: system.cpu.l1i.prefetcher: Spatial Region offset:       0X17
4521000: system.cpu.l1i.prefetcher: PC:   0X401E00
4521000: system.cpu.l1i.prefetcher: Spatial Region address:        0X3
4521000: system.cpu.l1i.prefetcher: Spatial Region physical address:     0X1E00
4521000: system.cpu.l1i.prefetcher: Spatial Region offset:       0X18
4589000: system.cpu.l1i.prefetcher: PC:   0X401E40
4589000: system.cpu.l1i.prefetcher: Spatial Region address:        0X3
4589000: system.cpu.l1i.prefetcher: Spatial Region physical address:     0X1E40
4589000: system.cpu.l1i.prefetcher: Spatial Region offset:       0X19
4657000: system.cpu.l1i.prefetcher: PC:   0X401E80
4657000: system.cpu.l1i.prefetcher: Spatial Region address:        0X3
4657000: system.cpu.l1i.prefetcher: Spatial Region physical address:     0X1E80
4657000: system.cpu.l1i.prefetcher: Spatial Region offset:       0X1A
4721000: system.cpu.l1i.prefetcher: PC:   0X401F14
4721000: system.cpu.l1i.prefetcher: Spatial Region address:        0X3
4721000: system.cpu.l1i.prefetcher: Spatial Region physical address:     0X1F00
4721000: system.cpu.l1i.prefetcher: Spatial Region offset:       0X1C
4785000: system.cpu.l1i.prefetcher: PC:   0X401F40
4785000: system.cpu.l1i.prefetcher: Spatial Region address:        0X3
4785000: system.cpu.l1i.prefetcher: Spatial Region physical address:     0X1F40
4785000: system.cpu.l1i.prefetcher: Spatial Region offset:       0X1D
4862000: system.cpu.l1i.prefetcher: PC:   0X4022C0
4862000: system.cpu.l1i.prefetcher: Spatial Region address:        0X4
4862000: system.cpu.l1i.prefetcher: Spatial Region physical address:     0X22C0
4862000: system.cpu.l1i.prefetcher: Spatial Region offset:        0XB
4967000: system.cpu.l1i.prefetcher: PC:   0X44C360
4967000: system.cpu.l1i.prefetcher: Spatial Region address:       0X98
4967000: system.cpu.l1i.prefetcher: Spatial Region physical address:    0X4C340
4967000: system.cpu.l1i.prefetcher: Spatial Region offset:        0XD
5031000: system.cpu.l1i.prefetcher: PC:   0X44C380
5031000: system.cpu.l1i.prefetcher: Spatial Region address:       0X98
5031000: system.cpu.l1i.prefetcher: Spatial Region physical address:    0X4C380
5031000: system.cpu.l1i.prefetcher: Spatial Region offset:        0XE
5039000: system.cpu.l1d.prefetcher: PC:   0X44C37C
5039000: system.cpu.l1d.prefetcher: Spatial Region address:      0X17C
5039000: system.cpu.l1d.prefetcher: Spatial Region physical address:    0XBE7A8
5039000: system.cpu.l1d.prefetcher: Spatial Region offset:       0X1E
5101000: system.cpu.l1d.prefetcher: PC:   0X44C380
5101000: system.cpu.l1d.prefetcher: Spatial Region address:      0X17C
5101000: system.cpu.l1d.prefetcher: Spatial Region physical address:    0XBE7C0
5101000: system.cpu.l1d.prefetcher: Spatial Region offset:       0X1F
5233000: system.cpu.l1d.prefetcher: PC:   0X44C37C
5233000: system.cpu.l1d.prefetcher: Spatial Region address:      0X17C
5233000: system.cpu.l1d.prefetcher: Spatial Region physical address:    0XBE620
5233000: system.cpu.l1d.prefetcher: Spatial Region offset:       0X18
5323000: system.cpu.l1d.prefetcher: PC:   0X44C39C
5323000: system.cpu.l1d.prefetcher: Spatial Region address:      0X17C
5323000: system.cpu.l1d.prefetcher: Spatial Region physical address:    0XBE640
5323000: system.cpu.l1d.prefetcher: Spatial Region offset:       0X19
5411000: system.cpu.l1d.prefetcher: PC:   0X402275
5411000: system.cpu.l1d.prefetcher: Spatial Region address:      0X183
5411000: system.cpu.l1d.prefetcher: Spatial Region physical address:    0XC1DC0
5411000: system.cpu.l1d.prefetcher: Spatial Region offset:       0X17
5428000: system.cpu.l1d.prefetcher: PC:   0X44C37C
5428000: system.cpu.l1d.prefetcher: Spatial Region address:      0X17D
5428000: system.cpu.l1d.prefetcher: Spatial Region physical address:    0XBE888
5428000: system.cpu.l1d.prefetcher: Spatial Region offset:        0X2
5581000: system.cpu.l1d.prefetcher: PC:   0X44C37C
5581000: system.cpu.l1d.prefetcher: Spatial Region address:      0X17C
5581000: system.cpu.l1d.prefetcher: Spatial Region physical address:    0XBE4D0
5581000: system.cpu.l1d.prefetcher: Spatial Region offset:       0X13
5727000: system.cpu.l1d.prefetcher: PC:   0X44C37C
5727000: system.cpu.l1d.prefetcher: Spatial Region address:      0X17C
5727000: system.cpu.l1d.prefetcher: Spatial Region physical address:    0XBE770
5727000: system.cpu.l1d.prefetcher: Spatial Region offset:       0X1D
5802000: system.cpu.l1d.prefetcher: PC:   0X44C3C8
5802000: system.cpu.l1d.prefetcher: Spatial Region address:      0X187
5802000: system.cpu.l1d.prefetcher: Spatial Region physical address:    0XC3D80
5802000: system.cpu.l1d.prefetcher: Spatial Region offset:       0X16
5874000: system.cpu.l1d.prefetcher: PC:   0X44C3C8
5874000: system.cpu.l1d.prefetcher: Spatial Region address:      0X187
5874000: system.cpu.l1d.prefetcher: Spatial Region physical address:    0XC3D88
5874000: system.cpu.l1d.prefetcher: Spatial Region offset:       0X16
5931000: system.cpu.l1d.prefetcher: PC:   0X402311
5931000: system.cpu.l1d.prefetcher: Spatial Region address:          0
5931000: system.cpu.l1d.prefetcher: Spatial Region physical address:      0X2E8
5931000: system.cpu.l1d.prefetcher: Spatial Region offset:        0XB
5945000: system.cpu.l1i.prefetcher: PC:   0X4023C0
5945000: system.cpu.l1i.prefetcher: Spatial Region address:        0X4
5945000: system.cpu.l1i.prefetcher: Spatial Region physical address:     0X23C0
5945000: system.cpu.l1i.prefetcher: Spatial Region offset:        0XF
6048000: system.cpu.l1i.prefetcher: PC:   0X421940
6048000: system.cpu.l1i.prefetcher: Spatial Region address:       0X43
6048000: system.cpu.l1i.prefetcher: Spatial Region physical address:    0X21940
6048000: system.cpu.l1i.prefetcher: Spatial Region offset:        0X5
6139000: system.cpu.l1i.prefetcher: PC:   0X421980
6139000: system.cpu.l1i.prefetcher: Spatial Region address:       0X43
6139000: system.cpu.l1i.prefetcher: Spatial Region physical address:    0X21980
6139000: system.cpu.l1i.prefetcher: Spatial Region offset:        0X6
6203000: system.cpu.l1i.prefetcher: PC:   0X4219C0
6203000: system.cpu.l1i.prefetcher: Spatial Region address:       0X43
6203000: system.cpu.l1i.prefetcher: Spatial Region physical address:    0X219C0
6203000: system.cpu.l1i.prefetcher: Spatial Region offset:        0X7
6276000: system.cpu.l1d.prefetcher: PC:   0X402318
6276000: system.cpu.l1d.prefetcher: Spatial Region address:      0X17E
6276000: system.cpu.l1d.prefetcher: Spatial Region physical address:    0XBF0D0
6276000: system.cpu.l1d.prefetcher: Spatial Region offset:        0X3
6289000: system.cpu.l1d.prefetcher: PC:   0X402311
6289000: system.cpu.l1d.prefetcher: Spatial Region address:          0
6289000: system.cpu.l1d.prefetcher: Spatial Region physical address:      0X300
6289000: system.cpu.l1d.prefetcher: Spatial Region offset:        0XC
6381000: system.cpu.l1i.prefetcher: PC:   0X421AB0
6381000: system.cpu.l1i.prefetcher: Spatial Region address:       0X43
6381000: system.cpu.l1i.prefetcher: Spatial Region physical address:    0X21A80
6381000: system.cpu.l1i.prefetcher: Spatial Region offset:        0XA
6472000: system.cpu.l1i.prefetcher: PC:   0X421AC0
6472000: system.cpu.l1i.prefetcher: Spatial Region address:       0X43
6472000: system.cpu.l1i.prefetcher: Spatial Region physical address:    0X21AC0
6472000: system.cpu.l1i.prefetcher: Spatial Region offset:        0XB
6536000: system.cpu.l1i.prefetcher: PC:   0X421B00
6536000: system.cpu.l1i.prefetcher: Spatial Region address:       0X43
6536000: system.cpu.l1i.prefetcher: Spatial Region physical address:    0X21B00
6536000: system.cpu.l1i.prefetcher: Spatial Region offset:        0XC
6628000: system.cpu.l1i.prefetcher: PC:   0X484A40
6628000: system.cpu.l1i.prefetcher: Spatial Region address:      0X109
6628000: system.cpu.l1i.prefetcher: Spatial Region physical address:    0X84A40
6628000: system.cpu.l1i.prefetcher: Spatial Region offset:        0X9
6705000: system.cpu.l1i.prefetcher: PC:   0X484A80
6705000: system.cpu.l1i.prefetcher: Spatial Region address:      0X109
6705000: system.cpu.l1i.prefetcher: Spatial Region physical address:    0X84A80
6705000: system.cpu.l1i.prefetcher: Spatial Region offset:        0XA
6797000: system.cpu.l1i.prefetcher: PC:   0X421A50
6797000: system.cpu.l1i.prefetcher: Spatial Region address:       0X43
6797000: system.cpu.l1i.prefetcher: Spatial Region physical address:    0X21A40
6797000: system.cpu.l1i.prefetcher: Spatial Region offset:        0X9
6887000: system.cpu.l1d.prefetcher: PC:   0X402318
6887000: system.cpu.l1d.prefetcher: Spatial Region address:      0X17E
6887000: system.cpu.l1d.prefetcher: Spatial Region physical address:    0XBF0B8
6887000: system.cpu.l1d.prefetcher: Spatial Region offset:        0X2
6888000: system.cpu.l1d.prefetcher: PC:   0X402328
6888000: system.cpu.l1d.prefetcher: Spatial Region address:          0
6888000: system.cpu.l1d.prefetcher: Spatial Region physical address:      0X340
6888000: system.cpu.l1d.prefetcher: Spatial Region offset:        0XD
6993000: system.cpu.l1i.prefetcher: PC:   0X422520
6993000: system.cpu.l1i.prefetcher: Spatial Region address:       0X44
6993000: system.cpu.l1i.prefetcher: Spatial Region physical address:    0X22500
6993000: system.cpu.l1i.prefetcher: Spatial Region offset:       0X14
7084000: system.cpu.l1i.prefetcher: PC:   0X422540
7084000: system.cpu.l1i.prefetcher: Spatial Region address:       0X44
7084000: system.cpu.l1i.prefetcher: Spatial Region physical address:    0X22540
7084000: system.cpu.l1i.prefetcher: Spatial Region offset:       0X15
7148000: system.cpu.l1i.prefetcher: PC:   0X422580
7148000: system.cpu.l1i.prefetcher: Spatial Region address:       0X44
7148000: system.cpu.l1i.prefetcher: Spatial Region physical address:    0X22580
7148000: system.cpu.l1i.prefetcher: Spatial Region offset:       0X16
7216000: system.cpu.l1i.prefetcher: PC:   0X4225C0
7216000: system.cpu.l1i.prefetcher: Spatial Region address:       0X44
7216000: system.cpu.l1i.prefetcher: Spatial Region physical address:    0X225C0
7216000: system.cpu.l1i.prefetcher: Spatial Region offset:       0X17
7282000: system.cpu.l1i.prefetcher: PC:   0X422600
7282000: system.cpu.l1i.prefetcher: Spatial Region address:       0X44
7282000: system.cpu.l1i.prefetcher: Spatial Region physical address:    0X22600
7282000: system.cpu.l1i.prefetcher: Spatial Region offset:       0X18
7374000: system.cpu.l1i.prefetcher: PC:   0X484CE0
7374000: system.cpu.l1i.prefetcher: Spatial Region address:      0X109
7374000: system.cpu.l1i.prefetcher: Spatial Region physical address:    0X84CC0
7374000: system.cpu.l1i.prefetcher: Spatial Region offset:       0X13
7438000: system.cpu.l1i.prefetcher: PC:   0X484D00
7438000: system.cpu.l1i.prefetcher: Spatial Region address:      0X109
7438000: system.cpu.l1i.prefetcher: Spatial Region physical address:    0X84D00
7438000: system.cpu.l1i.prefetcher: Spatial Region offset:       0X14
7502000: system.cpu.l1i.prefetcher: PC:   0X484D40
7502000: system.cpu.l1i.prefetcher: Spatial Region address:      0X109
7502000: system.cpu.l1i.prefetcher: Spatial Region physical address:    0X84D40
7502000: system.cpu.l1i.prefetcher: Spatial Region offset:       0X15
7570000: system.cpu.l1i.prefetcher: PC:   0X484D80
7570000: system.cpu.l1i.prefetcher: Spatial Region address:      0X109
7570000: system.cpu.l1i.prefetcher: Spatial Region physical address:    0X84D80
7570000: system.cpu.l1i.prefetcher: Spatial Region offset:       0X16
7666000: system.cpu.l1i.prefetcher: PC:   0X421A00
7666000: system.cpu.l1i.prefetcher: Spatial Region address:       0X43
7666000: system.cpu.l1i.prefetcher: Spatial Region physical address:    0X21A00
7666000: system.cpu.l1i.prefetcher: Spatial Region offset:        0X8
7767000: system.cpu.l1d.prefetcher: PC:   0X402328
7767000: system.cpu.l1d.prefetcher: Spatial Region address:          0
7767000: system.cpu.l1d.prefetcher: Spatial Region physical address:      0X388
7767000: system.cpu.l1d.prefetcher: Spatial Region offset:        0XE
7768000: system.cpu.l1d.prefetcher: PC:   0X40232C
7768000: system.cpu.l1d.prefetcher: Spatial Region address:          0
7768000: system.cpu.l1d.prefetcher: Spatial Region physical address:      0X380
7768000: system.cpu.l1d.prefetcher: Spatial Region offset:        0XE
7872000: system.cpu.l1i.prefetcher: PC:   0X470100
7872000: system.cpu.l1i.prefetcher: Spatial Region address:       0XE0
7872000: system.cpu.l1i.prefetcher: Spatial Region physical address:    0X70100
7872000: system.cpu.l1i.prefetcher: Spatial Region offset:        0X4
8125000: system.cpu.l1i.prefetcher: PC:   0X470140
8125000: system.cpu.l1i.prefetcher: Spatial Region address:       0XE0
8125000: system.cpu.l1i.prefetcher: Spatial Region physical address:    0X70140
8125000: system.cpu.l1i.prefetcher: Spatial Region offset:        0X5
8189000: system.cpu.l1i.prefetcher: PC:   0X470180
8189000: system.cpu.l1i.prefetcher: Spatial Region address:       0XE0
8189000: system.cpu.l1i.prefetcher: Spatial Region physical address:    0X70180
8189000: system.cpu.l1i.prefetcher: Spatial Region offset:        0X6
8281000: system.cpu.l1i.prefetcher: PC:   0X422480
8281000: system.cpu.l1i.prefetcher: Spatial Region address:       0X44
8281000: system.cpu.l1i.prefetcher: Spatial Region physical address:    0X22480
8281000: system.cpu.l1i.prefetcher: Spatial Region offset:       0X12
8358000: system.cpu.l1i.prefetcher: PC:   0X4224C0
8358000: system.cpu.l1i.prefetcher: Spatial Region address:       0X44
8358000: system.cpu.l1i.prefetcher: Spatial Region physical address:    0X224C0
8358000: system.cpu.l1i.prefetcher: Spatial Region offset:       0X13
8469000: system.cpu.l1d.prefetcher: PC:   0X402311
8469000: system.cpu.l1d.prefetcher: Spatial Region address:          0
8469000: system.cpu.l1d.prefetcher: Spatial Region physical address:      0X3C0
8469000: system.cpu.l1d.prefetcher: Spatial Region offset:        0XF
8547000: system.cpu.l1i.prefetcher: PC:   0X484CA0
8547000: system.cpu.l1i.prefetcher: Spatial Region address:      0X109
8547000: system.cpu.l1i.prefetcher: Spatial Region physical address:    0X84C80
8547000: system.cpu.l1i.prefetcher: Spatial Region offset:       0X12
8672000: system.cpu.l1i.prefetcher: PC:   0X422640
8672000: system.cpu.l1i.prefetcher: Spatial Region address:       0X44
8672000: system.cpu.l1i.prefetcher: Spatial Region physical address:    0X22640
8672000: system.cpu.l1i.prefetcher: Spatial Region offset:       0X19
8736000: system.cpu.l1i.prefetcher: PC:   0X422680
8736000: system.cpu.l1i.prefetcher: Spatial Region address:       0X44
8736000: system.cpu.l1i.prefetcher: Spatial Region physical address:    0X22680
8736000: system.cpu.l1i.prefetcher: Spatial Region offset:       0X1A
8804000: system.cpu.l1i.prefetcher: PC:   0X4226C0
8804000: system.cpu.l1i.prefetcher: Spatial Region address:       0X44
8804000: system.cpu.l1i.prefetcher: Spatial Region physical address:    0X226C0
8804000: system.cpu.l1i.prefetcher: Spatial Region offset:       0X1B
8896000: system.cpu.l1i.prefetcher: PC:   0X422350
8896000: system.cpu.l1i.prefetcher: Spatial Region address:       0X44
8896000: system.cpu.l1i.prefetcher: Spatial Region physical address:    0X22340
8896000: system.cpu.l1i.prefetcher: Spatial Region offset:        0XD
8960000: system.cpu.l1i.prefetcher: PC:   0X422380
8960000: system.cpu.l1i.prefetcher: Spatial Region address:       0X44
8960000: system.cpu.l1i.prefetcher: Spatial Region physical address:    0X22380
8960000: system.cpu.l1i.prefetcher: Spatial Region offset:        0XE
9024000: system.cpu.l1i.prefetcher: PC:   0X4223C0
9024000: system.cpu.l1i.prefetcher: Spatial Region address:       0X44
9024000: system.cpu.l1i.prefetcher: Spatial Region physical address:    0X223C0
9024000: system.cpu.l1i.prefetcher: Spatial Region offset:        0XF
9097000: system.cpu.l1d.prefetcher: PC:   0X402318
9097000: system.cpu.l1d.prefetcher: Spatial Region address:      0X17E
9097000: system.cpu.l1d.prefetcher: Spatial Region physical address:    0XBF078
9097000: system.cpu.l1d.prefetcher: Spatial Region offset:        0X1
9098000: system.cpu.l1d.prefetcher: PC:   0X402328
9098000: system.cpu.l1d.prefetcher: Spatial Region address:          0
9098000: system.cpu.l1d.prefetcher: Spatial Region physical address:      0X400
9098000: system.cpu.l1d.prefetcher: Spatial Region offset:       0X10
9199000: system.cpu.l1i.prefetcher: PC:   0X421B40
9199000: system.cpu.l1i.prefetcher: Spatial Region address:       0X43
9199000: system.cpu.l1i.prefetcher: Spatial Region physical address:    0X21B40
9199000: system.cpu.l1i.prefetcher: Spatial Region offset:        0XD
9294000: system.cpu.l1i.prefetcher: PC:   0X421B80
9294000: system.cpu.l1i.prefetcher: Spatial Region address:       0X43
9294000: system.cpu.l1i.prefetcher: Spatial Region physical address:    0X21B80
9294000: system.cpu.l1i.prefetcher: Spatial Region offset:        0XE
9386000: system.cpu.l1i.prefetcher: PC:   0X422330
9386000: system.cpu.l1i.prefetcher: Spatial Region address:       0X44
9386000: system.cpu.l1i.prefetcher: Spatial Region physical address:    0X22300
9386000: system.cpu.l1i.prefetcher: Spatial Region offset:        0XC
9461000: system.cpu.l1i.prefetcher: PC:   0X422400
9461000: system.cpu.l1i.prefetcher: Spatial Region address:       0X44
9461000: system.cpu.l1i.prefetcher: Spatial Region physical address:    0X22400
9461000: system.cpu.l1i.prefetcher: Spatial Region offset:       0X10
9553000: system.cpu.l1i.prefetcher: PC:   0X46E1A0
9553000: system.cpu.l1i.prefetcher: Spatial Region address:       0XDC
9553000: system.cpu.l1i.prefetcher: Spatial Region physical address:    0X6E180
9553000: system.cpu.l1i.prefetcher: Spatial Region offset:        0X6
9630000: system.cpu.l1i.prefetcher: PC:   0X46E1C0
9630000: system.cpu.l1i.prefetcher: Spatial Region address:       0XDC
9630000: system.cpu.l1i.prefetcher: Spatial Region physical address:    0X6E1C0
9630000: system.cpu.l1i.prefetcher: Spatial Region offset:        0X7
9694000: system.cpu.l1i.prefetcher: PC:   0X46E200
9694000: system.cpu.l1i.prefetcher: Spatial Region address:       0XDC
9694000: system.cpu.l1i.prefetcher: Spatial Region physical address:    0X6E200
9694000: system.cpu.l1i.prefetcher: Spatial Region offset:        0X8
9768000: system.cpu.l1d.prefetcher: PC:   0X402328
9768000: system.cpu.l1d.prefetcher: Spatial Region address:          0
9768000: system.cpu.l1d.prefetcher: Spatial Region physical address:      0X448
9768000: system.cpu.l1d.prefetcher: Spatial Region offset:       0X11
9769000: system.cpu.l1d.prefetcher: PC:   0X40232C
9769000: system.cpu.l1d.prefetcher: Spatial Region address:          0
9769000: system.cpu.l1d.prefetcher: Spatial Region physical address:      0X440
9769000: system.cpu.l1d.prefetcher: Spatial Region offset:       0X11
9873000: system.cpu.l1i.prefetcher: PC:   0X422790
9873000: system.cpu.l1i.prefetcher: Spatial Region address:       0X44
9873000: system.cpu.l1i.prefetcher: Spatial Region physical address:    0X22780
9873000: system.cpu.l1i.prefetcher: Spatial Region offset:       0X1E
9937000: system.cpu.l1i.prefetcher: PC:   0X4227C0
9937000: system.cpu.l1i.prefetcher: Spatial Region address:       0X44
9937000: system.cpu.l1i.prefetcher: Spatial Region physical address:    0X227C0
9937000: system.cpu.l1i.prefetcher: Spatial Region offset:       0X1F
10001000: system.cpu.l1i.prefetcher: PC:   0X422800
10001000: system.cpu.l1i.prefetcher: Spatial Region address:       0X45
10001000: system.cpu.l1i.prefetcher: Spatial Region physical address:    0X22800
10001000: system.cpu.l1i.prefetcher: Spatial Region offset:          0
10147000: system.cpu.l1d.prefetcher: PC:   0X402311
10147000: system.cpu.l1d.prefetcher: Spatial Region address:          0
10147000: system.cpu.l1d.prefetcher: Spatial Region physical address:      0X480
10147000: system.cpu.l1d.prefetcher: Spatial Region offset:       0X12
10212000: system.cpu.l1i.prefetcher: PC:   0X46E0E0
10212000: system.cpu.l1i.prefetcher: Spatial Region address:       0XDC
10212000: system.cpu.l1i.prefetcher: Spatial Region physical address:    0X6E0C0
10212000: system.cpu.l1i.prefetcher: Spatial Region offset:        0X3
10276000: system.cpu.l1i.prefetcher: PC:   0X46E100
10276000: system.cpu.l1i.prefetcher: Spatial Region address:       0XDC
10276000: system.cpu.l1i.prefetcher: Spatial Region physical address:    0X6E100
10276000: system.cpu.l1i.prefetcher: Spatial Region offset:        0X4
10340000: system.cpu.l1i.prefetcher: PC:   0X46E140
10340000: system.cpu.l1i.prefetcher: Spatial Region address:       0XDC
10340000: system.cpu.l1i.prefetcher: Spatial Region physical address:    0X6E140
10340000: system.cpu.l1i.prefetcher: Spatial Region offset:        0X5
10432000: system.cpu.l1i.prefetcher: PC:   0X46F9F0
10432000: system.cpu.l1i.prefetcher: Spatial Region address:       0XDF
10432000: system.cpu.l1i.prefetcher: Spatial Region physical address:    0X6F9C0
10432000: system.cpu.l1i.prefetcher: Spatial Region offset:        0X7
10496000: system.cpu.l1i.prefetcher: PC:   0X46FA00
10496000: system.cpu.l1i.prefetcher: Spatial Region address:       0XDF
10496000: system.cpu.l1i.prefetcher: Spatial Region physical address:    0X6FA00
10496000: system.cpu.l1i.prefetcher: Spatial Region offset:        0X8
10560000: system.cpu.l1i.prefetcher: PC:   0X46FA40
10560000: system.cpu.l1i.prefetcher: Spatial Region address:       0XDF
10560000: system.cpu.l1i.prefetcher: Spatial Region physical address:    0X6FA40
10560000: system.cpu.l1i.prefetcher: Spatial Region offset:        0X9
10656000: system.cpu.l1i.prefetcher: PC:   0X422700
10656000: system.cpu.l1i.prefetcher: Spatial Region address:       0X44
10656000: system.cpu.l1i.prefetcher: Spatial Region physical address:    0X22700
10656000: system.cpu.l1i.prefetcher: Spatial Region offset:       0X1C
10724000: system.cpu.l1i.prefetcher: PC:   0X422740
10724000: system.cpu.l1i.prefetcher: Spatial Region address:       0X44
10724000: system.cpu.l1i.prefetcher: Spatial Region physical address:    0X22740
10724000: system.cpu.l1i.prefetcher: Spatial Region offset:       0X1D
10815000: system.cpu.l1d.prefetcher: PC:   0X402318
10815000: system.cpu.l1d.prefetcher: Spatial Region address:      0X17E
10815000: system.cpu.l1d.prefetcher: Spatial Region physical address:    0XBF038
10815000: system.cpu.l1d.prefetcher: Spatial Region offset:          0
10816000: system.cpu.l1d.prefetcher: PC:   0X402328
10816000: system.cpu.l1d.prefetcher: Spatial Region address:          0
10816000: system.cpu.l1d.prefetcher: Spatial Region physical address:      0X4C0
10816000: system.cpu.l1d.prefetcher: Spatial Region offset:       0X13
10916000: system.cpu.l1i.prefetcher: PC:   0X422840
10916000: system.cpu.l1i.prefetcher: Spatial Region address:       0X45
10916000: system.cpu.l1i.prefetcher: Spatial Region physical address:    0X22840
10916000: system.cpu.l1i.prefetcher: Spatial Region offset:        0X1
11013000: system.cpu.l1i.prefetcher: PC:   0X422440
11013000: system.cpu.l1i.prefetcher: Spatial Region address:       0X44
11013000: system.cpu.l1i.prefetcher: Spatial Region physical address:    0X22440
11013000: system.cpu.l1i.prefetcher: Spatial Region offset:       0X11
11154000: system.cpu.l1i.prefetcher: PC:   0X46E0A0
11154000: system.cpu.l1i.prefetcher: Spatial Region address:       0XDC
11154000: system.cpu.l1i.prefetcher: Spatial Region physical address:    0X6E080
11154000: system.cpu.l1i.prefetcher: Spatial Region offset:        0X2
11247000: system.cpu.l1d.prefetcher: PC:   0X402328
11247000: system.cpu.l1d.prefetcher: Spatial Region address:          0
11247000: system.cpu.l1d.prefetcher: Spatial Region physical address:      0X508
11247000: system.cpu.l1d.prefetcher: Spatial Region offset:       0X14
11248000: system.cpu.l1d.prefetcher: PC:   0X40232C
11248000: system.cpu.l1d.prefetcher: Spatial Region address:          0
11248000: system.cpu.l1d.prefetcher: Spatial Region physical address:      0X500
11248000: system.cpu.l1d.prefetcher: Spatial Region offset:       0X14
11372000: system.cpu.l1i.prefetcher: PC:   0X40244B
11372000: system.cpu.l1i.prefetcher: Spatial Region address:        0X4
11372000: system.cpu.l1i.prefetcher: Spatial Region physical address:     0X2440
11372000: system.cpu.l1i.prefetcher: Spatial Region offset:       0X11
11463000: system.cpu.l1i.prefetcher: PC:   0X402480
11463000: system.cpu.l1i.prefetcher: Spatial Region address:        0X4
11463000: system.cpu.l1i.prefetcher: Spatial Region physical address:     0X2480
11463000: system.cpu.l1i.prefetcher: Spatial Region offset:       0X12
11527000: system.cpu.l1i.prefetcher: PC:   0X402AA0
11527000: system.cpu.l1i.prefetcher: Spatial Region address:        0X5
11527000: system.cpu.l1i.prefetcher: Spatial Region physical address:     0X2A80
11527000: system.cpu.l1i.prefetcher: Spatial Region offset:        0XA
11591000: system.cpu.l1i.prefetcher: PC:   0X402AC0
11591000: system.cpu.l1i.prefetcher: Spatial Region address:        0X5
11591000: system.cpu.l1i.prefetcher: Spatial Region physical address:     0X2AC0
11591000: system.cpu.l1i.prefetcher: Spatial Region offset:        0XB
11616000: system.cpu.l1d.prefetcher: PC:   0X402AB9
11616000: system.cpu.l1d.prefetcher: Spatial Region address:      0X180
11616000: system.cpu.l1d.prefetcher: Spatial Region physical address:    0XC0180
11616000: system.cpu.l1d.prefetcher: Spatial Region offset:        0X6
11655000: system.cpu.l1i.prefetcher: PC:   0X402B00
11655000: system.cpu.l1i.prefetcher: Spatial Region address:        0X5
11655000: system.cpu.l1i.prefetcher: Spatial Region physical address:     0X2B00
11655000: system.cpu.l1i.prefetcher: Spatial Region offset:        0XC
11722000: system.cpu.l1i.prefetcher: PC:   0X402B40
11722000: system.cpu.l1i.prefetcher: Spatial Region address:        0X5
11722000: system.cpu.l1i.prefetcher: Spatial Region physical address:     0X2B40
11722000: system.cpu.l1i.prefetcher: Spatial Region offset:        0XD
11723000: system.cpu.l1d.prefetcher: PC:   0X402AFD
11723000: system.cpu.l1d.prefetcher: Spatial Region address:          0
11723000: system.cpu.l1d.prefetcher: Spatial Region physical address:       0X40
11723000: system.cpu.l1d.prefetcher: Spatial Region offset:        0X1
11786000: system.cpu.l1i.prefetcher: PC:   0X402B80
11786000: system.cpu.l1i.prefetcher: Spatial Region address:        0X5
11786000: system.cpu.l1i.prefetcher: Spatial Region physical address:     0X2B80
11786000: system.cpu.l1i.prefetcher: Spatial Region offset:        0XE
11862000: system.cpu.l1d.prefetcher: PC:   0X402B02
11862000: system.cpu.l1d.prefetcher: Spatial Region address:          0
11862000: system.cpu.l1d.prefetcher: Spatial Region physical address:       0XA8
11862000: system.cpu.l1d.prefetcher: Spatial Region offset:        0X2
11863000: system.cpu.l1d.prefetcher: PC:   0X402B06
11863000: system.cpu.l1d.prefetcher: Spatial Region address:          0
11863000: system.cpu.l1d.prefetcher: Spatial Region physical address:       0XA0
11863000: system.cpu.l1d.prefetcher: Spatial Region offset:        0X2
11864000: system.cpu.l1i.prefetcher: PC:   0X402BC0
11864000: system.cpu.l1i.prefetcher: Spatial Region address:        0X5
11864000: system.cpu.l1i.prefetcher: Spatial Region physical address:     0X2BC0
11864000: system.cpu.l1i.prefetcher: Spatial Region offset:        0XF
11942000: system.cpu.l1d.prefetcher: PC:   0X402B02
11942000: system.cpu.l1d.prefetcher: Spatial Region address:          0
11942000: system.cpu.l1d.prefetcher: Spatial Region physical address:       0XE0
11942000: system.cpu.l1d.prefetcher: Spatial Region offset:        0X3
11943000: system.cpu.l1d.prefetcher: PC:   0X402B06
11943000: system.cpu.l1d.prefetcher: Spatial Region address:          0
11943000: system.cpu.l1d.prefetcher: Spatial Region physical address:       0XD8
11943000: system.cpu.l1d.prefetcher: Spatial Region offset:        0X3
12013000: system.cpu.l1d.prefetcher: PC:   0X402B02
12013000: system.cpu.l1d.prefetcher: Spatial Region address:          0
12013000: system.cpu.l1d.prefetcher: Spatial Region physical address:      0X118
12013000: system.cpu.l1d.prefetcher: Spatial Region offset:        0X4
12014000: system.cpu.l1d.prefetcher: PC:   0X402B06
12014000: system.cpu.l1d.prefetcher: Spatial Region address:          0
12014000: system.cpu.l1d.prefetcher: Spatial Region physical address:      0X110
12014000: system.cpu.l1d.prefetcher: Spatial Region offset:        0X4
12084000: system.cpu.l1d.prefetcher: PC:   0X402B02
12084000: system.cpu.l1d.prefetcher: Spatial Region address:          0
12084000: system.cpu.l1d.prefetcher: Spatial Region physical address:      0X150
12084000: system.cpu.l1d.prefetcher: Spatial Region offset:        0X5
12085000: system.cpu.l1d.prefetcher: PC:   0X402B06
12085000: system.cpu.l1d.prefetcher: Spatial Region address:          0
12085000: system.cpu.l1d.prefetcher: Spatial Region physical address:      0X148
12085000: system.cpu.l1d.prefetcher: Spatial Region offset:        0X5
12155000: system.cpu.l1d.prefetcher: PC:   0X402B02
12155000: system.cpu.l1d.prefetcher: Spatial Region address:          0
12155000: system.cpu.l1d.prefetcher: Spatial Region physical address:      0X188
12155000: system.cpu.l1d.prefetcher: Spatial Region offset:        0X6
12156000: system.cpu.l1d.prefetcher: PC:   0X402B06
12156000: system.cpu.l1d.prefetcher: Spatial Region address:          0
12156000: system.cpu.l1d.prefetcher: Spatial Region physical address:      0X180
12156000: system.cpu.l1d.prefetcher: Spatial Region offset:        0X6
12226000: system.cpu.l1d.prefetcher: PC:   0X402B02
12226000: system.cpu.l1d.prefetcher: Spatial Region address:          0
12226000: system.cpu.l1d.prefetcher: Spatial Region physical address:      0X1C0
12226000: system.cpu.l1d.prefetcher: Spatial Region offset:        0X7
12293000: system.cpu.l1d.prefetcher: PC:   0X402B24
12293000: system.cpu.l1d.prefetcher: Spatial Region address:      0X180
12293000: system.cpu.l1d.prefetcher: Spatial Region physical address:    0XC0220
12293000: system.cpu.l1d.prefetcher: Spatial Region offset:        0X8
12456000: system.cpu.l1i.prefetcher: PC:   0X402C00
12456000: system.cpu.l1i.prefetcher: Spatial Region address:        0X5
12456000: system.cpu.l1i.prefetcher: Spatial Region physical address:     0X2C00
12456000: system.cpu.l1i.prefetcher: Spatial Region offset:       0X10
12520000: system.cpu.l1i.prefetcher: PC:   0X449210
12520000: system.cpu.l1i.prefetcher: Spatial Region address:       0X92
12520000: system.cpu.l1i.prefetcher: Spatial Region physical address:    0X49200
12520000: system.cpu.l1i.prefetcher: Spatial Region offset:        0X8
12597000: system.cpu.l1i.prefetcher: PC:   0X449240
12597000: system.cpu.l1i.prefetcher: Spatial Region address:       0X92
12597000: system.cpu.l1i.prefetcher: Spatial Region physical address:    0X49240
12597000: system.cpu.l1i.prefetcher: Spatial Region offset:        0X9
12608000: system.cpu.l1d.prefetcher: PC:   0X44921E
12608000: system.cpu.l1d.prefetcher: Spatial Region address:      0X183
12608000: system.cpu.l1d.prefetcher: Spatial Region physical address:    0XC1F38
12608000: system.cpu.l1d.prefetcher: Spatial Region offset:       0X1C
12661000: system.cpu.l1i.prefetcher: PC:   0X449280
12661000: system.cpu.l1i.prefetcher: Spatial Region address:       0X92
12661000: system.cpu.l1i.prefetcher: Spatial Region physical address:    0X49280
12661000: system.cpu.l1i.prefetcher: Spatial Region offset:        0XA
12729000: system.cpu.l1i.prefetcher: PC:   0X4492C0
12729000: system.cpu.l1i.prefetcher: Spatial Region address:       0X92
12729000: system.cpu.l1i.prefetcher: Spatial Region physical address:    0X492C0
12729000: system.cpu.l1i.prefetcher: Spatial Region offset:        0XB
12793000: system.cpu.l1i.prefetcher: PC:   0X471510
12793000: system.cpu.l1i.prefetcher: Spatial Region address:       0XE2
12793000: system.cpu.l1i.prefetcher: Spatial Region physical address:    0X71500
12793000: system.cpu.l1i.prefetcher: Spatial Region offset:       0X14
12857000: system.cpu.l1i.prefetcher: PC:   0X471540
12857000: system.cpu.l1i.prefetcher: Spatial Region address:       0XE2
12857000: system.cpu.l1i.prefetcher: Spatial Region physical address:    0X71540
12857000: system.cpu.l1i.prefetcher: Spatial Region offset:       0X15
12925000: system.cpu.l1i.prefetcher: PC:   0X471580
12925000: system.cpu.l1i.prefetcher: Spatial Region address:       0XE2
12925000: system.cpu.l1i.prefetcher: Spatial Region physical address:    0X71580
12925000: system.cpu.l1i.prefetcher: Spatial Region offset:       0X16
12999000: system.cpu.l1i.prefetcher: PC:   0X449300
12999000: system.cpu.l1i.prefetcher: Spatial Region address:       0X92
12999000: system.cpu.l1i.prefetcher: Spatial Region physical address:    0X49300
12999000: system.cpu.l1i.prefetcher: Spatial Region offset:        0XC
13114000: system.cpu.l1i.prefetcher: PC:   0X4715C0
13114000: system.cpu.l1i.prefetcher: Spatial Region address:       0XE2
13114000: system.cpu.l1i.prefetcher: Spatial Region physical address:    0X715C0
13114000: system.cpu.l1i.prefetcher: Spatial Region offset:       0X17
13187000: system.cpu.l1i.prefetcher: PC:   0X449340
13187000: system.cpu.l1i.prefetcher: Spatial Region address:       0X92
13187000: system.cpu.l1i.prefetcher: Spatial Region physical address:    0X49340
13187000: system.cpu.l1i.prefetcher: Spatial Region offset:        0XD
13260000: system.cpu.l1d.prefetcher: PC:   0X402B60
13260000: system.cpu.l1d.prefetcher: Spatial Region address:      0X184
13260000: system.cpu.l1d.prefetcher: Spatial Region physical address:    0XC2320
13260000: system.cpu.l1d.prefetcher: Spatial Region offset:        0XC
13314000: system.cpu.l1i.prefetcher: PC:   0X402C40
13314000: system.cpu.l1i.prefetcher: Spatial Region address:        0X5
13314000: system.cpu.l1i.prefetcher: Spatial Region physical address:     0X2C40
13314000: system.cpu.l1i.prefetcher: Spatial Region offset:       0X11
13341000: system.cpu.l1d.prefetcher: PC:   0X402BB2
13341000: system.cpu.l1d.prefetcher: Spatial Region address:      0X180
13341000: system.cpu.l1d.prefetcher: Spatial Region physical address:    0XC0670
13341000: system.cpu.l1d.prefetcher: Spatial Region offset:       0X19
13349000: system.cpu.l1d.prefetcher: PC:   0X402BB9
13349000: system.cpu.l1d.prefetcher: Spatial Region address:      0X184
13349000: system.cpu.l1d.prefetcher: Spatial Region physical address:    0XC2340
13349000: system.cpu.l1d.prefetcher: Spatial Region offset:        0XD
13405000: system.cpu.l1i.prefetcher: PC:   0X401060
13405000: system.cpu.l1i.prefetcher: Spatial Region address:        0X2
13405000: system.cpu.l1i.prefetcher: Spatial Region physical address:     0X1040
13405000: system.cpu.l1i.prefetcher: Spatial Region offset:        0X1
13406000: system.cpu.l1d.prefetcher: PC:   0X402BC0
13406000: system.cpu.l1d.prefetcher: Spatial Region address:      0X184
13406000: system.cpu.l1d.prefetcher: Spatial Region physical address:    0XC2348
13406000: system.cpu.l1d.prefetcher: Spatial Region offset:        0XD
13496000: system.cpu.l1i.prefetcher: PC:   0X401080
13496000: system.cpu.l1i.prefetcher: Spatial Region address:        0X2
13496000: system.cpu.l1i.prefetcher: Spatial Region physical address:     0X1080
13496000: system.cpu.l1i.prefetcher: Spatial Region offset:        0X2
13560000: system.cpu.l1i.prefetcher: PC:   0X445A20
13560000: system.cpu.l1i.prefetcher: Spatial Region address:       0X8B
13560000: system.cpu.l1i.prefetcher: Spatial Region physical address:    0X45A00
13560000: system.cpu.l1i.prefetcher: Spatial Region offset:        0X8
13651000: system.cpu.l1i.prefetcher: PC:   0X445A40
13651000: system.cpu.l1i.prefetcher: Spatial Region address:       0X8B
13651000: system.cpu.l1i.prefetcher: Spatial Region physical address:    0X45A40
13651000: system.cpu.l1i.prefetcher: Spatial Region offset:        0X9
13660000: system.cpu.l1d.prefetcher: PC:   0X445A3B
13660000: system.cpu.l1d.prefetcher: Spatial Region address:      0X178
13660000: system.cpu.l1d.prefetcher: Spatial Region physical address:    0XBC0C0
13660000: system.cpu.l1d.prefetcher: Spatial Region offset:        0X3
13661000: system.cpu.l1d.prefetcher: PC:   0X445A3B
13661000: system.cpu.l1d.prefetcher: Spatial Region address:      0X178
13661000: system.cpu.l1d.prefetcher: Spatial Region physical address:    0XBC0C8
13661000: system.cpu.l1d.prefetcher: Spatial Region offset:        0X3
13715000: system.cpu.l1i.prefetcher: PC:   0X445A80
13715000: system.cpu.l1i.prefetcher: Spatial Region address:       0X8B
13715000: system.cpu.l1i.prefetcher: Spatial Region physical address:    0X45A80
13715000: system.cpu.l1i.prefetcher: Spatial Region offset:        0XA
13784000: system.cpu.l1i.prefetcher: PC:   0X445AC0
13784000: system.cpu.l1i.prefetcher: Spatial Region address:       0X8B
13784000: system.cpu.l1i.prefetcher: Spatial Region physical address:    0X45AC0
13784000: system.cpu.l1i.prefetcher: Spatial Region offset:        0XB
13785000: system.cpu.l1d.prefetcher: PC:   0X445A43
13785000: system.cpu.l1d.prefetcher: Spatial Region address:      0X18B
13785000: system.cpu.l1d.prefetcher: Spatial Region physical address:    0XC5820
13785000: system.cpu.l1d.prefetcher: Spatial Region offset:          0
13786000: system.cpu.l1d.prefetcher: PC:   0X445A43
13786000: system.cpu.l1d.prefetcher: Spatial Region address:      0X18B
13786000: system.cpu.l1d.prefetcher: Spatial Region physical address:    0XC5828
13786000: system.cpu.l1d.prefetcher: Spatial Region offset:          0
13894000: system.cpu.l1i.prefetcher: PC:   0X402C80
13894000: system.cpu.l1i.prefetcher: Spatial Region address:        0X5
13894000: system.cpu.l1i.prefetcher: Spatial Region physical address:     0X2C80
13894000: system.cpu.l1i.prefetcher: Spatial Region offset:       0X12
13897000: system.cpu.l1d.prefetcher: PC:   0X402BE5
13897000: system.cpu.l1d.prefetcher: Spatial Region address:      0X18B
13897000: system.cpu.l1d.prefetcher: Spatial Region physical address:    0XC5888
13897000: system.cpu.l1d.prefetcher: Spatial Region offset:        0X2
13900000: system.cpu.l1d.prefetcher: PC:   0X402BEE
13900000: system.cpu.l1d.prefetcher: Spatial Region address:      0X18B
13900000: system.cpu.l1d.prefetcher: Spatial Region physical address:    0XC5880
13900000: system.cpu.l1d.prefetcher: Spatial Region offset:        0X2
13994000: system.cpu.l1i.prefetcher: PC:   0X402CC0
13994000: system.cpu.l1i.prefetcher: Spatial Region address:        0X5
13994000: system.cpu.l1i.prefetcher: Spatial Region physical address:     0X2CC0
13994000: system.cpu.l1i.prefetcher: Spatial Region offset:       0X13
14072000: system.cpu.l1d.prefetcher: PC:   0X402C24
14072000: system.cpu.l1d.prefetcher: Spatial Region address:      0X184
14072000: system.cpu.l1d.prefetcher: Spatial Region physical address:    0XC2720
14072000: system.cpu.l1d.prefetcher: Spatial Region offset:       0X1C
14081000: system.cpu.l1d.prefetcher: PC:   0X402C4F
14081000: system.cpu.l1d.prefetcher: Spatial Region address:      0X182
14081000: system.cpu.l1d.prefetcher: Spatial Region physical address:    0XC12B8
14081000: system.cpu.l1d.prefetcher: Spatial Region offset:        0XA
14081000: system.cpu.l1i.prefetcher: PC:   0X402D00
14081000: system.cpu.l1i.prefetcher: Spatial Region address:        0X5
14081000: system.cpu.l1i.prefetcher: Spatial Region physical address:     0X2D00
14081000: system.cpu.l1i.prefetcher: Spatial Region offset:       0X14
14165000: system.cpu.l1d.prefetcher: PC:   0X402C75
14165000: system.cpu.l1d.prefetcher: Spatial Region address:      0X182
14165000: system.cpu.l1d.prefetcher: Spatial Region physical address:    0XC1290
14165000: system.cpu.l1d.prefetcher: Spatial Region offset:        0XA
14214000: system.cpu.l1i.prefetcher: PC:   0X402D40
14214000: system.cpu.l1i.prefetcher: Spatial Region address:        0X5
14214000: system.cpu.l1i.prefetcher: Spatial Region physical address:     0X2D40
14214000: system.cpu.l1i.prefetcher: Spatial Region offset:       0X15
14282000: system.cpu.l1i.prefetcher: PC:   0X4024C0
14282000: system.cpu.l1i.prefetcher: Spatial Region address:        0X4
14282000: system.cpu.l1i.prefetcher: Spatial Region physical address:     0X24C0
14282000: system.cpu.l1i.prefetcher: Spatial Region offset:       0X13
14288000: system.cpu.l1d.prefetcher: PC:   0X402456
14288000: system.cpu.l1d.prefetcher: Spatial Region address:      0X18B
14288000: system.cpu.l1d.prefetcher: Spatial Region physical address:    0XC58C8
14288000: system.cpu.l1d.prefetcher: Spatial Region offset:        0X3
14346000: system.cpu.l1i.prefetcher: PC:   0X4026CE
14346000: system.cpu.l1i.prefetcher: Spatial Region address:        0X4
14346000: system.cpu.l1i.prefetcher: Spatial Region physical address:     0X26C0
14346000: system.cpu.l1i.prefetcher: Spatial Region offset:       0X1B
14410000: system.cpu.l1i.prefetcher: PC:   0X402700
14410000: system.cpu.l1i.prefetcher: Spatial Region address:        0X4
14410000: system.cpu.l1i.prefetcher: Spatial Region physical address:     0X2700
14410000: system.cpu.l1i.prefetcher: Spatial Region offset:       0X1C
14474000: system.cpu.l1i.prefetcher: PC:   0X44E2F0
14474000: system.cpu.l1i.prefetcher: Spatial Region address:       0X9C
14474000: system.cpu.l1i.prefetcher: Spatial Region physical address:    0X4E2C0
14474000: system.cpu.l1i.prefetcher: Spatial Region offset:        0XB
14565000: system.cpu.l1i.prefetcher: PC:   0X44E300
14565000: system.cpu.l1i.prefetcher: Spatial Region address:       0X9C
14565000: system.cpu.l1i.prefetcher: Spatial Region physical address:    0X4E300
14565000: system.cpu.l1i.prefetcher: Spatial Region offset:        0XC
14629000: system.cpu.l1i.prefetcher: PC:   0X44E340
14629000: system.cpu.l1i.prefetcher: Spatial Region address:       0X9C
14629000: system.cpu.l1i.prefetcher: Spatial Region physical address:    0X4E340
14629000: system.cpu.l1i.prefetcher: Spatial Region offset:        0XD
14636000: system.cpu.l1d.prefetcher: PC:   0X44E304
14636000: system.cpu.l1d.prefetcher: Spatial Region address:      0X187
14636000: system.cpu.l1d.prefetcher: Spatial Region physical address:    0XC3B28
14636000: system.cpu.l1d.prefetcher: Spatial Region offset:        0XC
14693000: system.cpu.l1i.prefetcher: PC:   0X4712C0
14693000: system.cpu.l1i.prefetcher: Spatial Region address:       0XE2
14693000: system.cpu.l1i.prefetcher: Spatial Region physical address:    0X712C0
14693000: system.cpu.l1i.prefetcher: Spatial Region offset:        0XB
14757000: system.cpu.l1i.prefetcher: PC:   0X471300
14757000: system.cpu.l1i.prefetcher: Spatial Region address:       0XE2
14757000: system.cpu.l1i.prefetcher: Spatial Region physical address:    0X71300
14757000: system.cpu.l1i.prefetcher: Spatial Region offset:        0XC
14826000: system.cpu.l1i.prefetcher: PC:   0X471340
14826000: system.cpu.l1i.prefetcher: Spatial Region address:       0XE2
14826000: system.cpu.l1i.prefetcher: Spatial Region physical address:    0X71340
14826000: system.cpu.l1i.prefetcher: Spatial Region offset:        0XD
14895000: system.cpu.l1i.prefetcher: PC:   0X44E380
14895000: system.cpu.l1i.prefetcher: Spatial Region address:       0X9C
14895000: system.cpu.l1i.prefetcher: Spatial Region physical address:    0X4E380
14895000: system.cpu.l1i.prefetcher: Spatial Region offset:        0XE
14898000: system.cpu.l1d.prefetcher: PC:   0X44E31E
14898000: system.cpu.l1d.prefetcher: Spatial Region address:      0X187
14898000: system.cpu.l1d.prefetcher: Spatial Region physical address:    0XC3BF2
14898000: system.cpu.l1d.prefetcher: Spatial Region offset:        0XF
14965000: system.cpu.l1i.prefetcher: PC:   0X44E3C0
14965000: system.cpu.l1i.prefetcher: Spatial Region address:       0X9C
14965000: system.cpu.l1i.prefetcher: Spatial Region physical address:    0X4E3C0
14965000: system.cpu.l1i.prefetcher: Spatial Region offset:        0XF
15133000: system.cpu.l1i.prefetcher: PC:   0X44E400
15133000: system.cpu.l1i.prefetcher: Spatial Region address:       0X9C
15133000: system.cpu.l1i.prefetcher: Spatial Region physical address:    0X4E400
15133000: system.cpu.l1i.prefetcher: Spatial Region offset:       0X10
15223000: system.cpu.l1i.prefetcher: PC:   0X402740
15223000: system.cpu.l1i.prefetcher: Spatial Region address:        0X4
15223000: system.cpu.l1i.prefetcher: Spatial Region physical address:     0X2740
15223000: system.cpu.l1i.prefetcher: Spatial Region offset:       0X1D
15320000: system.cpu.l1i.prefetcher: PC:   0X402500
15320000: system.cpu.l1i.prefetcher: Spatial Region address:        0X4
15320000: system.cpu.l1i.prefetcher: Spatial Region physical address:     0X2500
15320000: system.cpu.l1i.prefetcher: Spatial Region offset:       0X14
15321000: system.cpu.l1d.prefetcher: PC:   0X402480
15321000: system.cpu.l1d.prefetcher: Spatial Region address:      0X17D
15321000: system.cpu.l1d.prefetcher: Spatial Region physical address:    0XBEF80
15321000: system.cpu.l1d.prefetcher: Spatial Region offset:       0X1E
15406000: system.cpu.l1i.prefetcher: PC:   0X402540
15406000: system.cpu.l1i.prefetcher: Spatial Region address:        0X4
15406000: system.cpu.l1i.prefetcher: Spatial Region physical address:     0X2540
15406000: system.cpu.l1i.prefetcher: Spatial Region offset:       0X15
15488000: system.cpu.l1i.prefetcher: PC:   0X44E440
15488000: system.cpu.l1i.prefetcher: Spatial Region address:       0X9C
15488000: system.cpu.l1i.prefetcher: Spatial Region physical address:    0X4E440
15488000: system.cpu.l1i.prefetcher: Spatial Region offset:       0X11
15554000: system.cpu.l1i.prefetcher: PC:   0X44E480
15554000: system.cpu.l1i.prefetcher: Spatial Region address:       0X9C
15554000: system.cpu.l1i.prefetcher: Spatial Region physical address:    0X4E480
15554000: system.cpu.l1i.prefetcher: Spatial Region offset:       0X12
15559000: system.cpu.l1d.prefetcher: PC:   0X44E460
15559000: system.cpu.l1d.prefetcher: Spatial Region address:      0X181
15559000: system.cpu.l1d.prefetcher: Spatial Region physical address:    0XC0A68
15559000: system.cpu.l1d.prefetcher: Spatial Region offset:        0X9
15618000: system.cpu.l1i.prefetcher: PC:   0X44E4C0
15618000: system.cpu.l1i.prefetcher: Spatial Region address:       0X9C
15618000: system.cpu.l1i.prefetcher: Spatial Region physical address:    0X4E4C0
15618000: system.cpu.l1i.prefetcher: Spatial Region offset:       0X13
15961000: system.cpu.l1d.prefetcher: PC:   0X44C800
15961000: system.cpu.l1d.prefetcher: Spatial Region address:      0X187
15961000: system.cpu.l1d.prefetcher: Spatial Region physical address:    0XC3C78
15961000: system.cpu.l1d.prefetcher: Spatial Region offset:       0X11
15964000: system.cpu.l1i.prefetcher: PC:   0X47BBD0
15964000: system.cpu.l1i.prefetcher: Spatial Region address:       0XF7
15964000: system.cpu.l1i.prefetcher: Spatial Region physical address:    0X7BBC0
15964000: system.cpu.l1i.prefetcher: Spatial Region offset:        0XF
16045000: system.cpu.l1i.prefetcher: PC:   0X47BC00
16045000: system.cpu.l1i.prefetcher: Spatial Region address:       0XF7
16045000: system.cpu.l1i.prefetcher: Spatial Region physical address:    0X7BC00
16045000: system.cpu.l1i.prefetcher: Spatial Region offset:       0X10
16113000: system.cpu.l1i.prefetcher: PC:   0X47BC40
16113000: system.cpu.l1i.prefetcher: Spatial Region address:       0XF7
16113000: system.cpu.l1i.prefetcher: Spatial Region physical address:    0X7BC40
16113000: system.cpu.l1i.prefetcher: Spatial Region offset:       0X11
16114000: system.cpu.l1d.prefetcher: PC:   0X47BBE1
16114000: system.cpu.l1d.prefetcher: Spatial Region address:      0X18D
16114000: system.cpu.l1d.prefetcher: Spatial Region physical address:    0XC6C58
16114000: system.cpu.l1d.prefetcher: Spatial Region offset:       0X11
16177000: system.cpu.l1i.prefetcher: PC:   0X47BC80
16177000: system.cpu.l1i.prefetcher: Spatial Region address:       0XF7
16177000: system.cpu.l1i.prefetcher: Spatial Region physical address:    0X7BC80
16177000: system.cpu.l1i.prefetcher: Spatial Region offset:       0X12
16260000: system.cpu.l1i.prefetcher: PC:   0X47BCC0
16260000: system.cpu.l1i.prefetcher: Spatial Region address:       0XF7
16260000: system.cpu.l1i.prefetcher: Spatial Region physical address:    0X7BCC0
16260000: system.cpu.l1i.prefetcher: Spatial Region offset:       0X13
16344000: system.cpu.l1d.prefetcher: PC:   0X47BC37
16344000: system.cpu.l1d.prefetcher: Spatial Region address:      0X18D
16344000: system.cpu.l1d.prefetcher: Spatial Region physical address:    0XC6C8D
16344000: system.cpu.l1d.prefetcher: Spatial Region offset:       0X12
16581000: system.cpu.l1i.prefetcher: PC:   0X47BD00
16581000: system.cpu.l1i.prefetcher: Spatial Region address:       0XF7
16581000: system.cpu.l1i.prefetcher: Spatial Region physical address:    0X7BD00
16581000: system.cpu.l1i.prefetcher: Spatial Region offset:       0X14
16645000: system.cpu.l1i.prefetcher: PC:   0X41EFD0
16645000: system.cpu.l1i.prefetcher: Spatial Region address:       0X3D
16645000: system.cpu.l1i.prefetcher: Spatial Region physical address:    0X1EFC0
16645000: system.cpu.l1i.prefetcher: Spatial Region offset:       0X1F
16722000: system.cpu.l1i.prefetcher: PC:   0X41F000
16722000: system.cpu.l1i.prefetcher: Spatial Region address:       0X3E
16722000: system.cpu.l1i.prefetcher: Spatial Region physical address:    0X1F000
16722000: system.cpu.l1i.prefetcher: Spatial Region offset:          0
16728000: system.cpu.l1d.prefetcher: PC:   0X41EFD6
16728000: system.cpu.l1d.prefetcher: Spatial Region address:      0X17E
16728000: system.cpu.l1d.prefetcher: Spatial Region physical address:    0XBF790
16728000: system.cpu.l1d.prefetcher: Spatial Region offset:       0X1E
16786000: system.cpu.l1i.prefetcher: PC:   0X41F040
16786000: system.cpu.l1i.prefetcher: Spatial Region address:       0X3E
16786000: system.cpu.l1i.prefetcher: Spatial Region physical address:    0X1F040
16786000: system.cpu.l1i.prefetcher: Spatial Region offset:        0X1
16821000: system.cpu.l1d.prefetcher: PC:   0X41EFDD
16821000: system.cpu.l1d.prefetcher: Spatial Region address:      0X18D
16821000: system.cpu.l1d.prefetcher: Spatial Region physical address:    0XC6C38
16821000: system.cpu.l1d.prefetcher: Spatial Region offset:       0X10
16822000: system.cpu.l1d.prefetcher: PC:   0X41EFE1
16822000: system.cpu.l1d.prefetcher: Spatial Region address:      0X18D
16822000: system.cpu.l1d.prefetcher: Spatial Region physical address:    0XC6C30
16822000: system.cpu.l1d.prefetcher: Spatial Region offset:       0X10
16877000: system.cpu.l1i.prefetcher: PC:   0X41F140
16877000: system.cpu.l1i.prefetcher: Spatial Region address:       0X3E
16877000: system.cpu.l1i.prefetcher: Spatial Region physical address:    0X1F140
16877000: system.cpu.l1i.prefetcher: Spatial Region offset:        0X5
16941000: system.cpu.l1i.prefetcher: PC:   0X41F180
16941000: system.cpu.l1i.prefetcher: Spatial Region address:       0X3E
16941000: system.cpu.l1i.prefetcher: Spatial Region physical address:    0X1F180
16941000: system.cpu.l1i.prefetcher: Spatial Region offset:        0X6
17005000: system.cpu.l1i.prefetcher: PC:   0X41EA10
17005000: system.cpu.l1i.prefetcher: Spatial Region address:       0X3D
17005000: system.cpu.l1i.prefetcher: Spatial Region physical address:    0X1EA00
17005000: system.cpu.l1i.prefetcher: Spatial Region offset:        0X8
17069000: system.cpu.l1i.prefetcher: PC:   0X41EA40
17069000: system.cpu.l1i.prefetcher: Spatial Region address:       0X3D
17069000: system.cpu.l1i.prefetcher: Spatial Region physical address:    0X1EA40
17069000: system.cpu.l1i.prefetcher: Spatial Region offset:        0X9
17074000: system.cpu.l1d.prefetcher: PC:   0X41EA14
17074000: system.cpu.l1d.prefetcher: Spatial Region address:      0X17E
17074000: system.cpu.l1d.prefetcher: Spatial Region physical address:    0XBF6E4
17074000: system.cpu.l1d.prefetcher: Spatial Region offset:       0X1B
17133000: system.cpu.l1i.prefetcher: PC:   0X41EA80
17133000: system.cpu.l1i.prefetcher: Spatial Region address:       0X3D
17133000: system.cpu.l1i.prefetcher: Spatial Region physical address:    0X1EA80
17133000: system.cpu.l1i.prefetcher: Spatial Region offset:        0XA
17224000: system.cpu.l1i.prefetcher: PC:   0X41EB60
17224000: system.cpu.l1i.prefetcher: Spatial Region address:       0X3D
17224000: system.cpu.l1i.prefetcher: Spatial Region physical address:    0X1EB40
17224000: system.cpu.l1i.prefetcher: Spatial Region offset:        0XD
17288000: system.cpu.l1i.prefetcher: PC:   0X41EB80
17288000: system.cpu.l1i.prefetcher: Spatial Region address:       0X3D
17288000: system.cpu.l1i.prefetcher: Spatial Region physical address:    0X1EB80
17288000: system.cpu.l1i.prefetcher: Spatial Region offset:        0XE
17352000: system.cpu.l1i.prefetcher: PC:   0X41DFE0
17352000: system.cpu.l1i.prefetcher: Spatial Region address:       0X3B
17352000: system.cpu.l1i.prefetcher: Spatial Region physical address:    0X1DFC0
17352000: system.cpu.l1i.prefetcher: Spatial Region offset:       0X1F
17429000: system.cpu.l1i.prefetcher: PC:   0X41E000
17429000: system.cpu.l1i.prefetcher: Spatial Region address:       0X3C
17429000: system.cpu.l1i.prefetcher: Spatial Region physical address:    0X1E000
17429000: system.cpu.l1i.prefetcher: Spatial Region offset:          0
17493000: system.cpu.l1i.prefetcher: PC:   0X41E040
17493000: system.cpu.l1i.prefetcher: Spatial Region address:       0X3C
17493000: system.cpu.l1i.prefetcher: Spatial Region physical address:    0X1E040
17493000: system.cpu.l1i.prefetcher: Spatial Region offset:        0X1
17501000: system.cpu.l1d.prefetcher: PC:   0X41E011
17501000: system.cpu.l1d.prefetcher: Spatial Region address:      0X18B
17501000: system.cpu.l1d.prefetcher: Spatial Region physical address:    0XC5858
17501000: system.cpu.l1d.prefetcher: Spatial Region offset:        0X1
17510000: system.cpu.l1d.prefetcher: PC:   0X41E02D
17510000: system.cpu.l1d.prefetcher: Spatial Region address:      0X17F
17510000: system.cpu.l1d.prefetcher: Spatial Region physical address:    0XBF818
17510000: system.cpu.l1d.prefetcher: Spatial Region offset:          0
17561000: system.cpu.l1i.prefetcher: PC:   0X41E080
17561000: system.cpu.l1i.prefetcher: Spatial Region address:       0X3C
17561000: system.cpu.l1i.prefetcher: Spatial Region physical address:    0X1E080
17561000: system.cpu.l1i.prefetcher: Spatial Region offset:        0X2
17576000: system.cpu.l1d.prefetcher: PC:   0X41E02D
17576000: system.cpu.l1d.prefetcher: Spatial Region address:      0X17F
17576000: system.cpu.l1d.prefetcher: Spatial Region physical address:    0XBF810
17576000: system.cpu.l1d.prefetcher: Spatial Region offset:          0
17658000: system.cpu.l1i.prefetcher: PC:   0X41E0C0
17658000: system.cpu.l1i.prefetcher: Spatial Region address:       0X3C
17658000: system.cpu.l1i.prefetcher: Spatial Region physical address:    0X1E0C0
17658000: system.cpu.l1i.prefetcher: Spatial Region offset:        0X3
17735000: system.cpu.l1d.prefetcher: PC:   0X41E02D
17735000: system.cpu.l1d.prefetcher: Spatial Region address:      0X17F
17735000: system.cpu.l1d.prefetcher: Spatial Region physical address:    0XBF848
17735000: system.cpu.l1d.prefetcher: Spatial Region offset:        0X1
17736000: system.cpu.l1d.prefetcher: PC:   0X41E02D
17736000: system.cpu.l1d.prefetcher: Spatial Region address:      0X17F
17736000: system.cpu.l1d.prefetcher: Spatial Region physical address:    0XBF840
17736000: system.cpu.l1d.prefetcher: Spatial Region offset:        0X1
17866000: system.cpu.l1d.prefetcher: PC:   0X41E02D
17866000: system.cpu.l1d.prefetcher: Spatial Region address:      0X17F
17866000: system.cpu.l1d.prefetcher: Spatial Region physical address:    0XBF888
17866000: system.cpu.l1d.prefetcher: Spatial Region offset:        0X2
17867000: system.cpu.l1d.prefetcher: PC:   0X41E02D
17867000: system.cpu.l1d.prefetcher: Spatial Region address:      0X17F
17867000: system.cpu.l1d.prefetcher: Spatial Region physical address:    0XBF880
17867000: system.cpu.l1d.prefetcher: Spatial Region offset:        0X2
17970000: system.cpu.l1d.prefetcher: PC:   0X41E02D
17970000: system.cpu.l1d.prefetcher: Spatial Region address:      0X17F
17970000: system.cpu.l1d.prefetcher: Spatial Region physical address:    0XBF8C8
17970000: system.cpu.l1d.prefetcher: Spatial Region offset:        0X3
17971000: system.cpu.l1d.prefetcher: PC:   0X41E02D
17971000: system.cpu.l1d.prefetcher: Spatial Region address:      0X17F
17971000: system.cpu.l1d.prefetcher: Spatial Region physical address:    0XBF8C0
17971000: system.cpu.l1d.prefetcher: Spatial Region offset:        0X3
18074000: system.cpu.l1d.prefetcher: PC:   0X41E02D
18074000: system.cpu.l1d.prefetcher: Spatial Region address:      0X17F
18074000: system.cpu.l1d.prefetcher: Spatial Region physical address:    0XBF908
18074000: system.cpu.l1d.prefetcher: Spatial Region offset:        0X4
18075000: system.cpu.l1d.prefetcher: PC:   0X41E02D
18075000: system.cpu.l1d.prefetcher: Spatial Region address:      0X17F
18075000: system.cpu.l1d.prefetcher: Spatial Region physical address:    0XBF900
18075000: system.cpu.l1d.prefetcher: Spatial Region offset:        0X4
18178000: system.cpu.l1d.prefetcher: PC:   0X41E02D
18178000: system.cpu.l1d.prefetcher: Spatial Region address:      0X17F
18178000: system.cpu.l1d.prefetcher: Spatial Region physical address:    0XBF948
18178000: system.cpu.l1d.prefetcher: Spatial Region offset:        0X5
18179000: system.cpu.l1d.prefetcher: PC:   0X41E02D
18179000: system.cpu.l1d.prefetcher: Spatial Region address:      0X17F
18179000: system.cpu.l1d.prefetcher: Spatial Region physical address:    0XBF940
18179000: system.cpu.l1d.prefetcher: Spatial Region offset:        0X5
18282000: system.cpu.l1d.prefetcher: PC:   0X41E02D
18282000: system.cpu.l1d.prefetcher: Spatial Region address:      0X17F
18282000: system.cpu.l1d.prefetcher: Spatial Region physical address:    0XBF988
18282000: system.cpu.l1d.prefetcher: Spatial Region offset:        0X6
18283000: system.cpu.l1d.prefetcher: PC:   0X41E02D
18283000: system.cpu.l1d.prefetcher: Spatial Region address:      0X17F
18283000: system.cpu.l1d.prefetcher: Spatial Region physical address:    0XBF980
18283000: system.cpu.l1d.prefetcher: Spatial Region offset:        0X6
18386000: system.cpu.l1d.prefetcher: PC:   0X41E02D
18386000: system.cpu.l1d.prefetcher: Spatial Region address:      0X17F
18386000: system.cpu.l1d.prefetcher: Spatial Region physical address:    0XBF9C8
18386000: system.cpu.l1d.prefetcher: Spatial Region offset:        0X7
18387000: system.cpu.l1d.prefetcher: PC:   0X41E02D
18387000: system.cpu.l1d.prefetcher: Spatial Region address:      0X17F
[...]
59717000: system.cpu.l1i.prefetcher: PC:   0X402600
59717000: system.cpu.l1i.prefetcher: Spatial Region address:        0X4
59717000: system.cpu.l1i.prefetcher: Spatial Region physical address:     0X2600
59717000: system.cpu.l1i.prefetcher: Spatial Region offset:       0X18
59808000: system.cpu.l1i.prefetcher: PC:   0X401730
59808000: system.cpu.l1i.prefetcher: Spatial Region address:        0X2
59808000: system.cpu.l1i.prefetcher: Spatial Region physical address:     0X1700
59808000: system.cpu.l1i.prefetcher: Spatial Region offset:       0X1C
59888000: system.cpu.l1i.prefetcher: PC:   0X401D80
59888000: system.cpu.l1i.prefetcher: Spatial Region address:        0X3
59888000: system.cpu.l1i.prefetcher: Spatial Region physical address:     0X1D80
59888000: system.cpu.l1i.prefetcher: Spatial Region offset:       0X16
59903000: system.cpu.l1i.prefetcher: PC:   0X401DC0
59903000: system.cpu.l1i.prefetcher: Spatial Region address:        0X3
59903000: system.cpu.l1i.prefetcher: Spatial Region physical address:     0X1DC0
59903000: system.cpu.l1i.prefetcher: Spatial Region offset:       0X17
166742000: system.cpu.l1i.prefetcher: PC:   0X40FEC0
166742000: system.cpu.l1i.prefetcher: Spatial Region address:       0X1F
166742000: system.cpu.l1i.prefetcher: Spatial Region physical address:     0XFEC0
166742000: system.cpu.l1i.prefetcher: Spatial Region offset:       0X1B
166762000: system.cpu.l1d.prefetcher: PC:   0X40FE6A
166762000: system.cpu.l1d.prefetcher: Spatial Region address:      0X17D
166762000: system.cpu.l1d.prefetcher: Spatial Region physical address:    0XBEFD8
166762000: system.cpu.l1d.prefetcher: Spatial Region offset:       0X1F
166819000: system.cpu.l1i.prefetcher: PC:   0X40FF00
166819000: system.cpu.l1i.prefetcher: Spatial Region address:       0X1F
166819000: system.cpu.l1i.prefetcher: Spatial Region physical address:     0XFF00
166819000: system.cpu.l1i.prefetcher: Spatial Region offset:       0X1C
166895000: system.cpu.l1i.prefetcher: PC:   0X40FF40
166895000: system.cpu.l1i.prefetcher: Spatial Region address:       0X1F
166895000: system.cpu.l1i.prefetcher: Spatial Region physical address:     0XFF40
166895000: system.cpu.l1i.prefetcher: Spatial Region offset:       0X1D
166967000: system.cpu.l1i.prefetcher: PC:   0X40FF80
166967000: system.cpu.l1i.prefetcher: Spatial Region address:       0X1F
166967000: system.cpu.l1i.prefetcher: Spatial Region physical address:     0XFF80
166967000: system.cpu.l1i.prefetcher: Spatial Region offset:       0X1E
167046000: system.cpu.l1i.prefetcher: PC:   0X402E80
167046000: system.cpu.l1i.prefetcher: Spatial Region address:        0X5
167046000: system.cpu.l1i.prefetcher: Spatial Region physical address:     0X2E80
167046000: system.cpu.l1i.prefetcher: Spatial Region offset:       0X1A
167123000: system.cpu.l1i.prefetcher: PC:   0X4016E0
167123000: system.cpu.l1i.prefetcher: Spatial Region address:        0X2
167123000: system.cpu.l1i.prefetcher: Spatial Region physical address:     0X16C0
167123000: system.cpu.l1i.prefetcher: Spatial Region offset:       0X1B
167205000: system.cpu.l1d.prefetcher: PC:   0X4016E4
167205000: system.cpu.l1d.prefetcher: Spatial Region address:      0X183
167205000: system.cpu.l1d.prefetcher: Spatial Region physical address:    0XC1FF8
167205000: system.cpu.l1d.prefetcher: Spatial Region offset:       0X1F
167358000: system.cpu.l1i.prefetcher: PC:   0X401C20
167358000: system.cpu.l1i.prefetcher: Spatial Region address:        0X3
167358000: system.cpu.l1i.prefetcher: Spatial Region physical address:     0X1C00
167358000: system.cpu.l1i.prefetcher: Spatial Region offset:       0X10
167412000: system.cpu.l1i.prefetcher: PC:   0X4920B0
167412000: system.cpu.l1i.prefetcher: Spatial Region address:      0X124
167412000: system.cpu.l1i.prefetcher: Spatial Region physical address:    0X92080
167412000: system.cpu.l1i.prefetcher: Spatial Region offset:        0X2
167489000: system.cpu.l1i.prefetcher: PC:   0X4920C0
167489000: system.cpu.l1i.prefetcher: Spatial Region address:      0X124
167489000: system.cpu.l1i.prefetcher: Spatial Region physical address:    0X920C0
167489000: system.cpu.l1i.prefetcher: Spatial Region offset:        0X3
167553000: system.cpu.l1i.prefetcher: PC:   0X491F80
167553000: system.cpu.l1i.prefetcher: Spatial Region address:      0X123
167553000: system.cpu.l1i.prefetcher: Spatial Region physical address:    0X91F80
167553000: system.cpu.l1i.prefetcher: Spatial Region offset:       0X1E
167630000: system.cpu.l1i.prefetcher: PC:   0X491FC0
167630000: system.cpu.l1i.prefetcher: Spatial Region address:      0X123
167630000: system.cpu.l1i.prefetcher: Spatial Region physical address:    0X91FC0
167630000: system.cpu.l1i.prefetcher: Spatial Region offset:       0X1F
167698000: system.cpu.l1i.prefetcher: PC:   0X492000
167698000: system.cpu.l1i.prefetcher: Spatial Region address:      0X124
167698000: system.cpu.l1i.prefetcher: Spatial Region physical address:    0X92000
167698000: system.cpu.l1i.prefetcher: Spatial Region offset:          0
167766000: system.cpu.l1i.prefetcher: PC:   0X492040
167766000: system.cpu.l1i.prefetcher: Spatial Region address:      0X124
167766000: system.cpu.l1i.prefetcher: Spatial Region physical address:    0X92040
167766000: system.cpu.l1i.prefetcher: Spatial Region offset:        0X1
167885000: system.cpu.l1i.prefetcher: PC:   0X402EC0
167885000: system.cpu.l1i.prefetcher: Spatial Region address:        0X5
167885000: system.cpu.l1i.prefetcher: Spatial Region physical address:     0X2EC0
167885000: system.cpu.l1i.prefetcher: Spatial Region offset:       0X1B
167949000: system.cpu.l1i.prefetcher: PC:   0X494550
167949000: system.cpu.l1i.prefetcher: Spatial Region address:      0X128
167949000: system.cpu.l1i.prefetcher: Spatial Region physical address:    0X94540
167949000: system.cpu.l1i.prefetcher: Spatial Region offset:       0X15
168026000: system.cpu.l1i.prefetcher: PC:   0X494580
168026000: system.cpu.l1i.prefetcher: Spatial Region address:      0X128
168026000: system.cpu.l1i.prefetcher: Spatial Region physical address:    0X94580
168026000: system.cpu.l1i.prefetcher: Spatial Region offset:       0X16
168094000: system.cpu.l1i.prefetcher: PC:   0X40FFC0
168094000: system.cpu.l1i.prefetcher: Spatial Region address:       0X1F
168094000: system.cpu.l1i.prefetcher: Spatial Region physical address:     0XFFC0
168094000: system.cpu.l1i.prefetcher: Spatial Region offset:       0X1F
168188000: system.cpu.l1i.prefetcher: PC:   0X410000
168188000: system.cpu.l1i.prefetcher: Spatial Region address:       0X20
168188000: system.cpu.l1i.prefetcher: Spatial Region physical address:    0X10000
168188000: system.cpu.l1i.prefetcher: Spatial Region offset:          0
168281000: system.cpu.l1i.prefetcher: PC:   0X410040
168281000: system.cpu.l1i.prefetcher: Spatial Region address:       0X20
168281000: system.cpu.l1i.prefetcher: Spatial Region physical address:    0X10040
168281000: system.cpu.l1i.prefetcher: Spatial Region offset:        0X1
168372000: system.cpu.l1i.prefetcher: PC:   0X410080
168372000: system.cpu.l1i.prefetcher: Spatial Region address:       0X20
168372000: system.cpu.l1i.prefetcher: Spatial Region physical address:    0X10080
168372000: system.cpu.l1i.prefetcher: Spatial Region offset:        0X2
168396000: system.cpu.l1d.prefetcher: PC:   0X410068
168396000: system.cpu.l1d.prefetcher: Spatial Region address:      0X182
168396000: system.cpu.l1d.prefetcher: Spatial Region physical address:    0XC1228
168396000: system.cpu.l1d.prefetcher: Spatial Region offset:        0X8
168436000: system.cpu.l1i.prefetcher: PC:   0X4100C0
168436000: system.cpu.l1i.prefetcher: Spatial Region address:       0X20
168436000: system.cpu.l1i.prefetcher: Spatial Region physical address:    0X100C0
168436000: system.cpu.l1i.prefetcher: Spatial Region offset:        0X3
168500000: system.cpu.l1i.prefetcher: PC:   0X418860
168500000: system.cpu.l1i.prefetcher: Spatial Region address:       0X31
168500000: system.cpu.l1i.prefetcher: Spatial Region physical address:    0X18840
168500000: system.cpu.l1i.prefetcher: Spatial Region offset:        0X1
168577000: system.cpu.l1i.prefetcher: PC:   0X418880
168577000: system.cpu.l1i.prefetcher: Spatial Region address:       0X31
168577000: system.cpu.l1i.prefetcher: Spatial Region physical address:    0X18880
168577000: system.cpu.l1i.prefetcher: Spatial Region offset:        0X2
168641000: system.cpu.l1i.prefetcher: PC:   0X4188C0
168641000: system.cpu.l1i.prefetcher: Spatial Region address:       0X31
168641000: system.cpu.l1i.prefetcher: Spatial Region physical address:    0X188C0
168641000: system.cpu.l1i.prefetcher: Spatial Region offset:        0X3
168705000: system.cpu.l1i.prefetcher: PC:   0X418560
168705000: system.cpu.l1i.prefetcher: Spatial Region address:       0X30
168705000: system.cpu.l1i.prefetcher: Spatial Region physical address:    0X18540
168705000: system.cpu.l1i.prefetcher: Spatial Region offset:       0X15
168769000: system.cpu.l1i.prefetcher: PC:   0X418580
168769000: system.cpu.l1i.prefetcher: Spatial Region address:       0X30
168769000: system.cpu.l1i.prefetcher: Spatial Region physical address:    0X18580
168769000: system.cpu.l1i.prefetcher: Spatial Region offset:       0X16
168833000: system.cpu.l1i.prefetcher: PC:   0X4185C0
168833000: system.cpu.l1i.prefetcher: Spatial Region address:       0X30
168833000: system.cpu.l1i.prefetcher: Spatial Region physical address:    0X185C0
168833000: system.cpu.l1i.prefetcher: Spatial Region offset:       0X17
168897000: system.cpu.l1i.prefetcher: PC:   0X418790
168897000: system.cpu.l1i.prefetcher: Spatial Region address:       0X30
168897000: system.cpu.l1i.prefetcher: Spatial Region physical address:    0X18780
168897000: system.cpu.l1i.prefetcher: Spatial Region offset:       0X1E
168961000: system.cpu.l1i.prefetcher: PC:   0X4187C0
168961000: system.cpu.l1i.prefetcher: Spatial Region address:       0X30
168961000: system.cpu.l1i.prefetcher: Spatial Region physical address:    0X187C0
168961000: system.cpu.l1i.prefetcher: Spatial Region offset:       0X1F
169029000: system.cpu.l1i.prefetcher: PC:   0X418600
169029000: system.cpu.l1i.prefetcher: Spatial Region address:       0X30
169029000: system.cpu.l1i.prefetcher: Spatial Region physical address:    0X18600
169029000: system.cpu.l1i.prefetcher: Spatial Region offset:       0X18
169033000: system.cpu.l1d.prefetcher: PC:   0X4185AE
169033000: system.cpu.l1d.prefetcher: Spatial Region address:      0X183
169033000: system.cpu.l1d.prefetcher: Spatial Region physical address:    0XC1C58
169033000: system.cpu.l1d.prefetcher: Spatial Region offset:       0X11
169093000: system.cpu.l1i.prefetcher: PC:   0X418640
169093000: system.cpu.l1i.prefetcher: Spatial Region address:       0X30
169093000: system.cpu.l1i.prefetcher: Spatial Region physical address:    0X18640
169093000: system.cpu.l1i.prefetcher: Spatial Region offset:       0X19
169127000: system.cpu.l1d.prefetcher: PC:   0X418610
169127000: system.cpu.l1d.prefetcher: Spatial Region address:      0X17E
169127000: system.cpu.l1d.prefetcher: Spatial Region physical address:    0XBF1E0
169127000: system.cpu.l1d.prefetcher: Spatial Region offset:        0X7
169157000: system.cpu.l1i.prefetcher: PC:   0X4186B4
169157000: system.cpu.l1i.prefetcher: Spatial Region address:       0X30
169157000: system.cpu.l1i.prefetcher: Spatial Region physical address:    0X18680
169157000: system.cpu.l1i.prefetcher: Spatial Region offset:       0X1A
169221000: system.cpu.l1i.prefetcher: PC:   0X4186C0
169221000: system.cpu.l1i.prefetcher: Spatial Region address:       0X30
169221000: system.cpu.l1i.prefetcher: Spatial Region physical address:    0X186C0
169221000: system.cpu.l1i.prefetcher: Spatial Region offset:       0X1B
169287000: system.cpu.l1i.prefetcher: PC:   0X418700
169287000: system.cpu.l1i.prefetcher: Spatial Region address:       0X30
169287000: system.cpu.l1i.prefetcher: Spatial Region physical address:    0X18700
169287000: system.cpu.l1i.prefetcher: Spatial Region offset:       0X1C
169351000: system.cpu.l1i.prefetcher: PC:   0X418740
169351000: system.cpu.l1i.prefetcher: Spatial Region address:       0X30
169351000: system.cpu.l1i.prefetcher: Spatial Region physical address:    0X18740
169351000: system.cpu.l1i.prefetcher: Spatial Region offset:       0X1D
169354000: system.cpu.l1d.prefetcher: PC:   0X4186FD
169354000: system.cpu.l1d.prefetcher: Spatial Region address:      0X17E
169354000: system.cpu.l1d.prefetcher: Spatial Region physical address:    0XBF200
169354000: system.cpu.l1d.prefetcher: Spatial Region offset:        0X8
169417000: system.cpu.l1d.prefetcher: PC:   0X41870B
169417000: system.cpu.l1d.prefetcher: Spatial Region address:      0X17E
169417000: system.cpu.l1d.prefetcher: Spatial Region physical address:    0XBF160
169417000: system.cpu.l1d.prefetcher: Spatial Region offset:        0X5
169418000: system.cpu.l1d.prefetcher: PC:   0X41870F
169418000: system.cpu.l1d.prefetcher: Spatial Region address:      0X17E
169418000: system.cpu.l1d.prefetcher: Spatial Region physical address:    0XBF168
169418000: system.cpu.l1d.prefetcher: Spatial Region offset:        0X5
169510000: system.cpu.l1d.prefetcher: PC:   0X4186AB
169510000: system.cpu.l1d.prefetcher: Spatial Region address:      0X17E
169510000: system.cpu.l1d.prefetcher: Spatial Region physical address:    0XBF1A8
169510000: system.cpu.l1d.prefetcher: Spatial Region offset:        0X6
169576000: system.cpu.l1d.prefetcher: PC:   0X4186BF
169576000: system.cpu.l1d.prefetcher: Spatial Region address:      0X17E
169576000: system.cpu.l1d.prefetcher: Spatial Region physical address:    0XBF320
169576000: system.cpu.l1d.prefetcher: Spatial Region offset:        0XC
169639000: system.cpu.l1d.prefetcher: PC:   0X4186FD
169639000: system.cpu.l1d.prefetcher: Spatial Region address:      0X17E
169639000: system.cpu.l1d.prefetcher: Spatial Region physical address:    0XBF3E0
169639000: system.cpu.l1d.prefetcher: Spatial Region offset:        0XF
169702000: system.cpu.l1d.prefetcher: PC:   0X41870B
169702000: system.cpu.l1d.prefetcher: Spatial Region address:      0X17E
169702000: system.cpu.l1d.prefetcher: Spatial Region physical address:    0XBF340
169702000: system.cpu.l1d.prefetcher: Spatial Region offset:        0XD
169703000: system.cpu.l1d.prefetcher: PC:   0X41870F
169703000: system.cpu.l1d.prefetcher: Spatial Region address:      0X17E
169703000: system.cpu.l1d.prefetcher: Spatial Region physical address:    0XBF348
169703000: system.cpu.l1d.prefetcher: Spatial Region offset:        0XD
169794000: system.cpu.l1d.prefetcher: PC:   0X4186AB
169794000: system.cpu.l1d.prefetcher: Spatial Region address:      0X17E
169794000: system.cpu.l1d.prefetcher: Spatial Region physical address:    0XBF388
169794000: system.cpu.l1d.prefetcher: Spatial Region offset:        0XE
169860000: system.cpu.l1d.prefetcher: PC:   0X4186BF
169860000: system.cpu.l1d.prefetcher: Spatial Region address:      0X17E
169860000: system.cpu.l1d.prefetcher: Spatial Region physical address:    0XBF500
169860000: system.cpu.l1d.prefetcher: Spatial Region offset:       0X14
169923000: system.cpu.l1d.prefetcher: PC:   0X4186FD
169923000: system.cpu.l1d.prefetcher: Spatial Region address:      0X17E
169923000: system.cpu.l1d.prefetcher: Spatial Region physical address:    0XBF5C0
169923000: system.cpu.l1d.prefetcher: Spatial Region offset:       0X17
170018000: system.cpu.l1d.prefetcher: PC:   0X4186AB
170018000: system.cpu.l1d.prefetcher: Spatial Region address:      0X17E
170018000: system.cpu.l1d.prefetcher: Spatial Region physical address:    0XBF568
170018000: system.cpu.l1d.prefetcher: Spatial Region offset:       0X15
170116000: system.cpu.l1i.prefetcher: PC:   0X418800
170116000: system.cpu.l1i.prefetcher: Spatial Region address:       0X31
170116000: system.cpu.l1i.prefetcher: Spatial Region physical address:    0X18800
170116000: system.cpu.l1i.prefetcher: Spatial Region offset:          0
170219000: system.cpu.l1i.prefetcher: PC:   0X418900
170219000: system.cpu.l1i.prefetcher: Spatial Region address:       0X31
170219000: system.cpu.l1i.prefetcher: Spatial Region physical address:    0X18900
170219000: system.cpu.l1i.prefetcher: Spatial Region offset:        0X4
170283000: system.cpu.l1i.prefetcher: PC:   0X418AD8
170283000: system.cpu.l1i.prefetcher: Spatial Region address:       0X31
170283000: system.cpu.l1i.prefetcher: Spatial Region physical address:    0X18AC0
170283000: system.cpu.l1i.prefetcher: Spatial Region offset:        0XB
170360000: system.cpu.l1i.prefetcher: PC:   0X418B00
170360000: system.cpu.l1i.prefetcher: Spatial Region address:       0X31
170360000: system.cpu.l1i.prefetcher: Spatial Region physical address:    0X18B00
170360000: system.cpu.l1i.prefetcher: Spatial Region offset:        0XC
170430000: system.cpu.l1i.prefetcher: PC:   0X418940
170430000: system.cpu.l1i.prefetcher: Spatial Region address:       0X31
170430000: system.cpu.l1i.prefetcher: Spatial Region physical address:    0X18940
170430000: system.cpu.l1i.prefetcher: Spatial Region offset:        0X5
170498000: system.cpu.l1i.prefetcher: PC:   0X418980
170498000: system.cpu.l1i.prefetcher: Spatial Region address:       0X31
170498000: system.cpu.l1i.prefetcher: Spatial Region physical address:    0X18980
170498000: system.cpu.l1i.prefetcher: Spatial Region offset:        0X6
170572000: system.cpu.l1i.prefetcher: PC:   0X4189C0
170572000: system.cpu.l1i.prefetcher: Spatial Region address:       0X31
170572000: system.cpu.l1i.prefetcher: Spatial Region physical address:    0X189C0
170572000: system.cpu.l1i.prefetcher: Spatial Region offset:        0X7
170654000: system.cpu.l1d.prefetcher: PC:   0X418938
170654000: system.cpu.l1d.prefetcher: Spatial Region address:      0X17E
170654000: system.cpu.l1d.prefetcher: Spatial Region physical address:    0XBF588
170654000: system.cpu.l1d.prefetcher: Spatial Region offset:       0X16
170727000: system.cpu.l1i.prefetcher: PC:   0X418A30
170727000: system.cpu.l1i.prefetcher: Spatial Region address:       0X31
170727000: system.cpu.l1i.prefetcher: Spatial Region physical address:    0X18A00
170727000: system.cpu.l1i.prefetcher: Spatial Region offset:        0X8
170791000: system.cpu.l1i.prefetcher: PC:   0X418A40
170791000: system.cpu.l1i.prefetcher: Spatial Region address:       0X31
170791000: system.cpu.l1i.prefetcher: Spatial Region physical address:    0X18A40
170791000: system.cpu.l1i.prefetcher: Spatial Region offset:        0X9
170855000: system.cpu.l1i.prefetcher: PC:   0X418A80
170855000: system.cpu.l1i.prefetcher: Spatial Region address:       0X31
170855000: system.cpu.l1i.prefetcher: Spatial Region physical address:    0X18A80
170855000: system.cpu.l1i.prefetcher: Spatial Region offset:        0XA
170938000: system.cpu.l1i.prefetcher: PC:   0X418B40
170938000: system.cpu.l1i.prefetcher: Spatial Region address:       0X31
170938000: system.cpu.l1i.prefetcher: Spatial Region physical address:    0X18B40
170938000: system.cpu.l1i.prefetcher: Spatial Region offset:        0XD
171018000: system.cpu.l1i.prefetcher: PC:   0X447E00
171018000: system.cpu.l1i.prefetcher: Spatial Region address:       0X8F
171018000: system.cpu.l1i.prefetcher: Spatial Region physical address:    0X47E00
171018000: system.cpu.l1i.prefetcher: Spatial Region offset:       0X18
171095000: system.cpu.l1i.prefetcher: PC:   0X447E40
171095000: system.cpu.l1i.prefetcher: Spatial Region address:       0X8F
171095000: system.cpu.l1i.prefetcher: Spatial Region physical address:    0X47E40
171095000: system.cpu.l1i.prefetcher: Spatial Region offset:       0X19
171163000: system.cpu.l1i.prefetcher: PC:   0X447E80
171163000: system.cpu.l1i.prefetcher: Spatial Region address:       0X8F
171163000: system.cpu.l1i.prefetcher: Spatial Region physical address:    0X47E80
171163000: system.cpu.l1i.prefetcher: Spatial Region offset:       0X1A
Exit Eventexiting with last active thread context
Dump stats at the end of the ROI!
