gem5 Simulator System.  http://gem5.org
gem5 is copyrighted software; use the --copyright option for details.

gem5 version 20.1.0.2
gem5 compiled Dec 10 2021 07:18:28
gem5 started Dec 10 2021 07:23:07
gem5 executing on ARCH-750, pid 1094367
command line: /data/home/ycc32/450_project/gem5/build/X86/gem5.opt --debug-flags=HWPrefetch -re --outdir=/data/home/ycc32/450_project/gem5/results/X86/run_micro/MI/Minor4/Slow/DDR3_2133_8x8/1GHz gem5-config/run_micro.py Minor4 Slow microbenchmark/MI/bench.X86 DDR3_2133_8x8 --clock=1GHz

1GHz CPU speed and DRAM = DDR3_2133_8x8
system.py: init L2 cache with size 1MB
Global frequency set at 1000000000000 ticks per second
   1000: system.cpu.l1i.prefetcher: Hello World from HMM model
  79000: system.cpu.l1i.prefetcher: Hello World from HMM model
  82000: system.cpu.l1d.prefetcher: Hello World from HMM model
 143000: system.cpu.l1i.prefetcher: Hello World from HMM model
 167000: system.cpu.l1d.prefetcher: Hello World from HMM model
 207000: system.cpu.l1i.prefetcher: Hello World from HMM model
 284000: system.cpu.l1i.prefetcher: Hello World from HMM model
 348000: system.cpu.l1i.prefetcher: Hello World from HMM model
 352000: system.cpu.l1d.prefetcher: Hello World from HMM model
 355000: system.cpu.l1d.prefetcher: Hello World from HMM model
 414000: system.cpu.l1d.prefetcher: Hello World from HMM model
 416000: system.cpu.l1i.prefetcher: Hello World from HMM model
 420000: system.cpu.l1d.prefetcher: Hello World from HMM model
 487000: system.cpu.l1i.prefetcher: Hello World from HMM model
 585000: system.cpu.l1i.prefetcher: Hello World from HMM model
 589000: system.cpu.l1d.prefetcher: Hello World from HMM model
 592000: system.cpu.l1d.prefetcher: Hello World from HMM model
 649000: system.cpu.l1i.prefetcher: Hello World from HMM model
 713000: system.cpu.l1i.prefetcher: Hello World from HMM model
 790000: system.cpu.l1i.prefetcher: Hello World from HMM model
 797000: system.cpu.l1d.prefetcher: Hello World from HMM model
 803000: system.cpu.l1d.prefetcher: Hello World from HMM model
 854000: system.cpu.l1i.prefetcher: Hello World from HMM model
 868000: system.cpu.l1d.prefetcher: Hello World from HMM model
 918000: system.cpu.l1i.prefetcher: Hello World from HMM model
 933000: system.cpu.l1d.prefetcher: Hello World from HMM model
 982000: system.cpu.l1i.prefetcher: Hello World from HMM model
 997000: system.cpu.l1d.prefetcher: Hello World from HMM model
1060000: system.cpu.l1d.prefetcher: Hello World from HMM model
1128000: system.cpu.l1i.prefetcher: Hello World from HMM model
1130000: system.cpu.l1d.prefetcher: Hello World from HMM model
1134000: system.cpu.l1d.prefetcher: Hello World from HMM model
1195000: system.cpu.l1d.prefetcher: Hello World from HMM model
1285000: system.cpu.l1i.prefetcher: Hello World from HMM model
1297000: system.cpu.l1d.prefetcher: Hello World from HMM model
1375000: system.cpu.l1i.prefetcher: Hello World from HMM model
1439000: system.cpu.l1i.prefetcher: Hello World from HMM model
1503000: system.cpu.l1i.prefetcher: Hello World from HMM model
1512000: system.cpu.l1d.prefetcher: Hello World from HMM model
1567000: system.cpu.l1i.prefetcher: Hello World from HMM model
1640000: system.cpu.l1d.prefetcher: Hello World from HMM model
1706000: system.cpu.l1i.prefetcher: Hello World from HMM model
1770000: system.cpu.l1i.prefetcher: Hello World from HMM model
1843000: system.cpu.l1d.prefetcher: Hello World from HMM model
1909000: system.cpu.l1i.prefetcher: Hello World from HMM model
1973000: system.cpu.l1i.prefetcher: Hello World from HMM model
2037000: system.cpu.l1i.prefetcher: Hello World from HMM model
2123000: system.cpu.l1i.prefetcher: Hello World from HMM model
2217000: system.cpu.l1i.prefetcher: Hello World from HMM model
2222000: system.cpu.l1d.prefetcher: Hello World from HMM model
2281000: system.cpu.l1i.prefetcher: Hello World from HMM model
2466000: system.cpu.l1d.prefetcher: Hello World from HMM model
2659000: system.cpu.l1d.prefetcher: Hello World from HMM model
2856000: system.cpu.l1d.prefetcher: Hello World from HMM model
2981000: system.cpu.l1i.prefetcher: Hello World from HMM model
3190000: system.cpu.l1i.prefetcher: Hello World from HMM model
3254000: system.cpu.l1i.prefetcher: Hello World from HMM model
3318000: system.cpu.l1i.prefetcher: Hello World from HMM model
3396000: system.cpu.l1i.prefetcher: Hello World from HMM model
3460000: system.cpu.l1i.prefetcher: Hello World from HMM model
3524000: system.cpu.l1i.prefetcher: Hello World from HMM model
3588000: system.cpu.l1i.prefetcher: Hello World from HMM model
3652000: system.cpu.l1i.prefetcher: Hello World from HMM model
3746000: system.cpu.l1d.prefetcher: Hello World from HMM model
3746000: system.cpu.l1i.prefetcher: Hello World from HMM model
3810000: system.cpu.l1i.prefetcher: Hello World from HMM model
3874000: system.cpu.l1i.prefetcher: Hello World from HMM model
3938000: system.cpu.l1i.prefetcher: Hello World from HMM model
4002000: system.cpu.l1i.prefetcher: Hello World from HMM model
4080000: system.cpu.l1i.prefetcher: Hello World from HMM model
4144000: system.cpu.l1i.prefetcher: Hello World from HMM model
4208000: system.cpu.l1i.prefetcher: Hello World from HMM model
4272000: system.cpu.l1i.prefetcher: Hello World from HMM model
4336000: system.cpu.l1i.prefetcher: Hello World from HMM model
4417000: system.cpu.l1i.prefetcher: Hello World from HMM model
4485000: system.cpu.l1i.prefetcher: Hello World from HMM model
4549000: system.cpu.l1i.prefetcher: Hello World from HMM model
4613000: system.cpu.l1i.prefetcher: Hello World from HMM model
4716000: system.cpu.l1i.prefetcher: Hello World from HMM model
4780000: system.cpu.l1i.prefetcher: Hello World from HMM model
4844000: system.cpu.l1i.prefetcher: Hello World from HMM model
4915000: system.cpu.l1d.prefetcher: Hello World from HMM model
4978000: system.cpu.l1d.prefetcher: Hello World from HMM model
5109000: system.cpu.l1d.prefetcher: Hello World from HMM model
5200000: system.cpu.l1d.prefetcher: Hello World from HMM model
5288000: system.cpu.l1d.prefetcher: Hello World from HMM model
5306000: system.cpu.l1d.prefetcher: Hello World from HMM model
5383000: system.cpu.l1d.prefetcher: Hello World from HMM model
5440000: system.cpu.l1d.prefetcher: Hello World from HMM model
5589000: system.cpu.l1d.prefetcher: Hello World from HMM model
5709000: system.cpu.l1i.prefetcher: Hello World from HMM model
5853000: system.cpu.l1d.prefetcher: Hello World from HMM model
5949000: system.cpu.l1i.prefetcher: Hello World from HMM model
6024000: system.cpu.l1i.prefetcher: Hello World from HMM model
6115000: system.cpu.l1i.prefetcher: Hello World from HMM model
6179000: system.cpu.l1i.prefetcher: Hello World from HMM model
6252000: system.cpu.l1d.prefetcher: Hello World from HMM model
6266000: system.cpu.l1d.prefetcher: Hello World from HMM model
6358000: system.cpu.l1i.prefetcher: Hello World from HMM model
6449000: system.cpu.l1i.prefetcher: Hello World from HMM model
6542000: system.cpu.l1i.prefetcher: Hello World from HMM model
6633000: system.cpu.l1i.prefetcher: Hello World from HMM model
6726000: system.cpu.l1i.prefetcher: Hello World from HMM model
6790000: system.cpu.l1i.prefetcher: Hello World from HMM model
6863000: system.cpu.l1d.prefetcher: Hello World from HMM model
6864000: system.cpu.l1d.prefetcher: Hello World from HMM model
6970000: system.cpu.l1i.prefetcher: Hello World from HMM model
7061000: system.cpu.l1i.prefetcher: Hello World from HMM model
7125000: system.cpu.l1i.prefetcher: Hello World from HMM model
7191000: system.cpu.l1i.prefetcher: Hello World from HMM model
7257000: system.cpu.l1i.prefetcher: Hello World from HMM model
7350000: system.cpu.l1i.prefetcher: Hello World from HMM model
7414000: system.cpu.l1i.prefetcher: Hello World from HMM model
7478000: system.cpu.l1i.prefetcher: Hello World from HMM model
7544000: system.cpu.l1i.prefetcher: Hello World from HMM model
7641000: system.cpu.l1i.prefetcher: Hello World from HMM model
7742000: system.cpu.l1d.prefetcher: Hello World from HMM model
7743000: system.cpu.l1d.prefetcher: Hello World from HMM model
7848000: system.cpu.l1i.prefetcher: Hello World from HMM model
8125000: system.cpu.l1i.prefetcher: Hello World from HMM model
8189000: system.cpu.l1i.prefetcher: Hello World from HMM model
8282000: system.cpu.l1i.prefetcher: Hello World from HMM model
8359000: system.cpu.l1i.prefetcher: Hello World from HMM model
8482000: system.cpu.l1d.prefetcher: Hello World from HMM model
8560000: system.cpu.l1i.prefetcher: Hello World from HMM model
8653000: system.cpu.l1i.prefetcher: Hello World from HMM model
8746000: system.cpu.l1i.prefetcher: Hello World from HMM model
8810000: system.cpu.l1i.prefetcher: Hello World from HMM model
8876000: system.cpu.l1i.prefetcher: Hello World from HMM model
8969000: system.cpu.l1i.prefetcher: Hello World from HMM model
9033000: system.cpu.l1i.prefetcher: Hello World from HMM model
9097000: system.cpu.l1i.prefetcher: Hello World from HMM model
9170000: system.cpu.l1d.prefetcher: Hello World from HMM model
9171000: system.cpu.l1d.prefetcher: Hello World from HMM model
9271000: system.cpu.l1i.prefetcher: Hello World from HMM model
9364000: system.cpu.l1i.prefetcher: Hello World from HMM model
9471000: system.cpu.l1i.prefetcher: Hello World from HMM model
9564000: system.cpu.l1i.prefetcher: Hello World from HMM model
9641000: system.cpu.l1i.prefetcher: Hello World from HMM model
9705000: system.cpu.l1i.prefetcher: Hello World from HMM model
9779000: system.cpu.l1d.prefetcher: Hello World from HMM model
9780000: system.cpu.l1d.prefetcher: Hello World from HMM model
9885000: system.cpu.l1i.prefetcher: Hello World from HMM model
9949000: system.cpu.l1i.prefetcher: Hello World from HMM model
10013000: system.cpu.l1i.prefetcher: Hello World from HMM model
10138000: system.cpu.l1i.prefetcher: Hello World from HMM model
10225000: system.cpu.l1d.prefetcher: Hello World from HMM model
10290000: system.cpu.l1i.prefetcher: Hello World from HMM model
10354000: system.cpu.l1i.prefetcher: Hello World from HMM model
10418000: system.cpu.l1i.prefetcher: Hello World from HMM model
10511000: system.cpu.l1i.prefetcher: Hello World from HMM model
10575000: system.cpu.l1i.prefetcher: Hello World from HMM model
10678000: system.cpu.l1i.prefetcher: Hello World from HMM model
10774000: system.cpu.l1i.prefetcher: Hello World from HMM model
10847000: system.cpu.l1d.prefetcher: Hello World from HMM model
10848000: system.cpu.l1d.prefetcher: Hello World from HMM model
10988000: system.cpu.l1i.prefetcher: Hello World from HMM model
11115000: system.cpu.l1i.prefetcher: Hello World from HMM model
11208000: system.cpu.l1d.prefetcher: Hello World from HMM model
11209000: system.cpu.l1d.prefetcher: Hello World from HMM model
11335000: system.cpu.l1i.prefetcher: Hello World from HMM model
11412000: system.cpu.l1i.prefetcher: Hello World from HMM model
11476000: system.cpu.l1i.prefetcher: Hello World from HMM model
11540000: system.cpu.l1i.prefetcher: Hello World from HMM model
11604000: system.cpu.l1i.prefetcher: Hello World from HMM model
11613000: system.cpu.l1d.prefetcher: Hello World from HMM model
11668000: system.cpu.l1i.prefetcher: Hello World from HMM model
11736000: system.cpu.l1i.prefetcher: Hello World from HMM model
11737000: system.cpu.l1d.prefetcher: Hello World from HMM model
11800000: system.cpu.l1i.prefetcher: Hello World from HMM model
11876000: system.cpu.l1d.prefetcher: Hello World from HMM model
11877000: system.cpu.l1d.prefetcher: Hello World from HMM model
11947000: system.cpu.l1d.prefetcher: Hello World from HMM model
11948000: system.cpu.l1d.prefetcher: Hello World from HMM model
12018000: system.cpu.l1d.prefetcher: Hello World from HMM model
12019000: system.cpu.l1d.prefetcher: Hello World from HMM model
12089000: system.cpu.l1d.prefetcher: Hello World from HMM model
12090000: system.cpu.l1d.prefetcher: Hello World from HMM model
12160000: system.cpu.l1d.prefetcher: Hello World from HMM model
12161000: system.cpu.l1d.prefetcher: Hello World from HMM model
12231000: system.cpu.l1d.prefetcher: Hello World from HMM model
12298000: system.cpu.l1d.prefetcher: Hello World from HMM model
12452000: system.cpu.l1i.prefetcher: Hello World from HMM model
12516000: system.cpu.l1i.prefetcher: Hello World from HMM model
12593000: system.cpu.l1i.prefetcher: Hello World from HMM model
12600000: system.cpu.l1d.prefetcher: Hello World from HMM model
12604000: system.cpu.l1d.prefetcher: Hello World from HMM model
12657000: system.cpu.l1i.prefetcher: Hello World from HMM model
12723000: system.cpu.l1i.prefetcher: Hello World from HMM model
12787000: system.cpu.l1i.prefetcher: Hello World from HMM model
12851000: system.cpu.l1i.prefetcher: Hello World from HMM model
12919000: system.cpu.l1i.prefetcher: Hello World from HMM model
12989000: system.cpu.l1i.prefetcher: Hello World from HMM model
13082000: system.cpu.l1i.prefetcher: Hello World from HMM model
13153000: system.cpu.l1i.prefetcher: Hello World from HMM model
13253000: system.cpu.l1i.prefetcher: Hello World from HMM model
13326000: system.cpu.l1d.prefetcher: Hello World from HMM model
13330000: system.cpu.l1i.prefetcher: Hello World from HMM model
13401000: system.cpu.l1i.prefetcher: Hello World from HMM model
13407000: system.cpu.l1d.prefetcher: Hello World from HMM model
13408000: system.cpu.l1d.prefetcher: Hello World from HMM model
13465000: system.cpu.l1i.prefetcher: Hello World from HMM model
13470000: system.cpu.l1d.prefetcher: Hello World from HMM model
13556000: system.cpu.l1i.prefetcher: Hello World from HMM model
13620000: system.cpu.l1i.prefetcher: Hello World from HMM model
13711000: system.cpu.l1i.prefetcher: Hello World from HMM model
13775000: system.cpu.l1i.prefetcher: Hello World from HMM model
13782000: system.cpu.l1d.prefetcher: Hello World from HMM model
13783000: system.cpu.l1d.prefetcher: Hello World from HMM model
13839000: system.cpu.l1i.prefetcher: Hello World from HMM model
13909000: system.cpu.l1d.prefetcher: Hello World from HMM model
13910000: system.cpu.l1d.prefetcher: Hello World from HMM model
13913000: system.cpu.l1i.prefetcher: Hello World from HMM model
14001000: system.cpu.l1d.prefetcher: Hello World from HMM model
14001000: system.cpu.l1i.prefetcher: Hello World from HMM model
14004000: system.cpu.l1d.prefetcher: Hello World from HMM model
14087000: system.cpu.l1i.prefetcher: Hello World from HMM model
14091000: system.cpu.l1d.prefetcher: Hello World from HMM model
14100000: system.cpu.l1d.prefetcher: Hello World from HMM model
14184000: system.cpu.l1d.prefetcher: Hello World from HMM model
14188000: system.cpu.l1i.prefetcher: Hello World from HMM model
14256000: system.cpu.l1i.prefetcher: Hello World from HMM model
14262000: system.cpu.l1d.prefetcher: Hello World from HMM model
14320000: system.cpu.l1i.prefetcher: Hello World from HMM model
14384000: system.cpu.l1i.prefetcher: Hello World from HMM model
14461000: system.cpu.l1i.prefetcher: Hello World from HMM model
14552000: system.cpu.l1i.prefetcher: Hello World from HMM model
14568000: system.cpu.l1d.prefetcher: Hello World from HMM model
14616000: system.cpu.l1i.prefetcher: Hello World from HMM model
14680000: system.cpu.l1i.prefetcher: Hello World from HMM model
14748000: system.cpu.l1i.prefetcher: Hello World from HMM model
14816000: system.cpu.l1i.prefetcher: Hello World from HMM model
14820000: system.cpu.l1d.prefetcher: Hello World from HMM model
14880000: system.cpu.l1i.prefetcher: Hello World from HMM model
14957000: system.cpu.l1i.prefetcher: Hello World from HMM model
15137000: system.cpu.l1i.prefetcher: Hello World from HMM model
15205000: system.cpu.l1i.prefetcher: Hello World from HMM model
15208000: system.cpu.l1d.prefetcher: Hello World from HMM model
15277000: system.cpu.l1i.prefetcher: Hello World from HMM model
15376000: system.cpu.l1i.prefetcher: Hello World from HMM model
15442000: system.cpu.l1i.prefetcher: Hello World from HMM model
15508000: system.cpu.l1i.prefetcher: Hello World from HMM model
15513000: system.cpu.l1d.prefetcher: Hello World from HMM model
15572000: system.cpu.l1i.prefetcher: Hello World from HMM model
15957000: system.cpu.l1i.prefetcher: Hello World from HMM model
16034000: system.cpu.l1i.prefetcher: Hello World from HMM model
16111000: system.cpu.l1i.prefetcher: Hello World from HMM model
16118000: system.cpu.l1d.prefetcher: Hello World from HMM model
16121000: system.cpu.l1d.prefetcher: Hello World from HMM model
16179000: system.cpu.l1i.prefetcher: Hello World from HMM model
16194000: system.cpu.l1d.prefetcher: Hello World from HMM model
16243000: system.cpu.l1i.prefetcher: Hello World from HMM model
16332000: system.cpu.l1i.prefetcher: Hello World from HMM model
16416000: system.cpu.l1d.prefetcher: Hello World from HMM model
16653000: system.cpu.l1i.prefetcher: Hello World from HMM model
16717000: system.cpu.l1i.prefetcher: Hello World from HMM model
16794000: system.cpu.l1i.prefetcher: Hello World from HMM model
16800000: system.cpu.l1d.prefetcher: Hello World from HMM model
16858000: system.cpu.l1i.prefetcher: Hello World from HMM model
16949000: system.cpu.l1i.prefetcher: Hello World from HMM model
17013000: system.cpu.l1i.prefetcher: Hello World from HMM model
17077000: system.cpu.l1i.prefetcher: Hello World from HMM model
17141000: system.cpu.l1i.prefetcher: Hello World from HMM model
17146000: system.cpu.l1d.prefetcher: Hello World from HMM model
17205000: system.cpu.l1i.prefetcher: Hello World from HMM model
17296000: system.cpu.l1i.prefetcher: Hello World from HMM model
17360000: system.cpu.l1i.prefetcher: Hello World from HMM model
17366000: system.cpu.l1d.prefetcher: Hello World from HMM model
17424000: system.cpu.l1i.prefetcher: Hello World from HMM model
17488000: system.cpu.l1i.prefetcher: Hello World from HMM model
17552000: system.cpu.l1i.prefetcher: Hello World from HMM model
17563000: system.cpu.l1d.prefetcher: Hello World from HMM model
17572000: system.cpu.l1d.prefetcher: Hello World from HMM model
17616000: system.cpu.l1i.prefetcher: Hello World from HMM model
17639000: system.cpu.l1d.prefetcher: Hello World from HMM model
17715000: system.cpu.l1i.prefetcher: Hello World from HMM model
17797000: system.cpu.l1i.prefetcher: Hello World from HMM model
17874000: system.cpu.l1d.prefetcher: Hello World from HMM model
17875000: system.cpu.l1d.prefetcher: Hello World from HMM model
18005000: system.cpu.l1d.prefetcher: Hello World from HMM model
18006000: system.cpu.l1d.prefetcher: Hello World from HMM model
18109000: system.cpu.l1d.prefetcher: Hello World from HMM model
18110000: system.cpu.l1d.prefetcher: Hello World from HMM model
18213000: system.cpu.l1d.prefetcher: Hello World from HMM model
18214000: system.cpu.l1d.prefetcher: Hello World from HMM model
18317000: system.cpu.l1d.prefetcher: Hello World from HMM model
18318000: system.cpu.l1d.prefetcher: Hello World from HMM model
18421000: system.cpu.l1d.prefetcher: Hello World from HMM model
18422000: system.cpu.l1d.prefetcher: Hello World from HMM model
18525000: system.cpu.l1d.prefetcher: Hello World from HMM model
18526000: system.cpu.l1d.prefetcher: Hello World from HMM model
18629000: system.cpu.l1d.prefetcher: Hello World from HMM model
18630000: system.cpu.l1d.prefetcher: Hello World from HMM model
18733000: system.cpu.l1d.prefetcher: Hello World from HMM model
18734000: system.cpu.l1d.prefetcher: Hello World from HMM model
18837000: system.cpu.l1d.prefetcher: Hello World from HMM model
18838000: system.cpu.l1d.prefetcher: Hello World from HMM model
18941000: system.cpu.l1d.prefetcher: Hello World from HMM model
18942000: system.cpu.l1d.prefetcher: Hello World from HMM model
19045000: system.cpu.l1d.prefetcher: Hello World from HMM model
19046000: system.cpu.l1d.prefetcher: Hello World from HMM model
19149000: system.cpu.l1d.prefetcher: Hello World from HMM model
19150000: system.cpu.l1d.prefetcher: Hello World from HMM model
19253000: system.cpu.l1d.prefetcher: Hello World from HMM model
19254000: system.cpu.l1d.prefetcher: Hello World from HMM model
19357000: system.cpu.l1d.prefetcher: Hello World from HMM model
19358000: system.cpu.l1d.prefetcher: Hello World from HMM model
19461000: system.cpu.l1d.prefetcher: Hello World from HMM model
19462000: system.cpu.l1d.prefetcher: Hello World from HMM model
19565000: system.cpu.l1d.prefetcher: Hello World from HMM model
19566000: system.cpu.l1d.prefetcher: Hello World from HMM model
19682000: system.cpu.l1d.prefetcher: Hello World from HMM model
19683000: system.cpu.l1d.prefetcher: Hello World from HMM model
19786000: system.cpu.l1d.prefetcher: Hello World from HMM model
19787000: system.cpu.l1d.prefetcher: Hello World from HMM model
19890000: system.cpu.l1d.prefetcher: Hello World from HMM model
19891000: system.cpu.l1d.prefetcher: Hello World from HMM model
19994000: system.cpu.l1d.prefetcher: Hello World from HMM model
19995000: system.cpu.l1d.prefetcher: Hello World from HMM model
20098000: system.cpu.l1d.prefetcher: Hello World from HMM model
20099000: system.cpu.l1d.prefetcher: Hello World from HMM model
20202000: system.cpu.l1d.prefetcher: Hello World from HMM model
20203000: system.cpu.l1d.prefetcher: Hello World from HMM model
20306000: system.cpu.l1d.prefetcher: Hello World from HMM model
20307000: system.cpu.l1d.prefetcher: Hello World from HMM model
20410000: system.cpu.l1d.prefetcher: Hello World from HMM model
20411000: system.cpu.l1d.prefetcher: Hello World from HMM model
20514000: system.cpu.l1d.prefetcher: Hello World from HMM model
20515000: system.cpu.l1d.prefetcher: Hello World from HMM model
20618000: system.cpu.l1d.prefetcher: Hello World from HMM model
20619000: system.cpu.l1d.prefetcher: Hello World from HMM model
20722000: system.cpu.l1d.prefetcher: Hello World from HMM model
20723000: system.cpu.l1d.prefetcher: Hello World from HMM model
20826000: system.cpu.l1d.prefetcher: Hello World from HMM model
20827000: system.cpu.l1d.prefetcher: Hello World from HMM model
20930000: system.cpu.l1d.prefetcher: Hello World from HMM model
20931000: system.cpu.l1d.prefetcher: Hello World from HMM model
21034000: system.cpu.l1d.prefetcher: Hello World from HMM model
21035000: system.cpu.l1d.prefetcher: Hello World from HMM model
21151000: system.cpu.l1d.prefetcher: Hello World from HMM model
21222000: system.cpu.l1d.prefetcher: Hello World from HMM model
21325000: system.cpu.l1i.prefetcher: Hello World from HMM model
21427000: system.cpu.l1d.prefetcher: Hello World from HMM model
21587000: system.cpu.l1d.prefetcher: Hello World from HMM model
21703000: system.cpu.l1d.prefetcher: Hello World from HMM model
21822000: system.cpu.l1i.prefetcher: Hello World from HMM model
21924000: system.cpu.l1d.prefetcher: Hello World from HMM model
22084000: system.cpu.l1d.prefetcher: Hello World from HMM model
22201000: system.cpu.l1d.prefetcher: Hello World from HMM model
22321000: system.cpu.l1i.prefetcher: Hello World from HMM model
22423000: system.cpu.l1d.prefetcher: Hello World from HMM model
22513000: system.cpu.l1d.prefetcher: Hello World from HMM model
22645000: system.cpu.l1d.prefetcher: Hello World from HMM model
22855000: system.cpu.l1d.prefetcher: Hello World from HMM model
22973000: system.cpu.l1i.prefetcher: Hello World from HMM model
23075000: system.cpu.l1d.prefetcher: Hello World from HMM model
23165000: system.cpu.l1d.prefetcher: Hello World from HMM model
23297000: system.cpu.l1i.prefetcher: Hello World from HMM model
23392000: system.cpu.l1i.prefetcher: Hello World from HMM model
23701000: system.cpu.l1i.prefetcher: Hello World from HMM model
23795000: system.cpu.l1i.prefetcher: Hello World from HMM model
23872000: system.cpu.l1i.prefetcher: Hello World from HMM model
23936000: system.cpu.l1i.prefetcher: Hello World from HMM model
24000000: system.cpu.l1i.prefetcher: Hello World from HMM model
24064000: system.cpu.l1i.prefetcher: Hello World from HMM model
24085000: system.cpu.l1d.prefetcher: Hello World from HMM model
24128000: system.cpu.l1i.prefetcher: Hello World from HMM model
24192000: system.cpu.l1i.prefetcher: Hello World from HMM model
24256000: system.cpu.l1i.prefetcher: Hello World from HMM model
24320000: system.cpu.l1i.prefetcher: Hello World from HMM model
24384000: system.cpu.l1i.prefetcher: Hello World from HMM model
24448000: system.cpu.l1i.prefetcher: Hello World from HMM model
24516000: system.cpu.l1i.prefetcher: Hello World from HMM model
24582000: system.cpu.l1i.prefetcher: Hello World from HMM model
24646000: system.cpu.l1i.prefetcher: Hello World from HMM model
24650000: system.cpu.l1d.prefetcher: Hello World from HMM model
24655000: system.cpu.l1d.prefetcher: Hello World from HMM model
24710000: system.cpu.l1i.prefetcher: Hello World from HMM model
24778000: system.cpu.l1i.prefetcher: Hello World from HMM model
24784000: system.cpu.l1d.prefetcher: Hello World from HMM model
24842000: system.cpu.l1i.prefetcher: Hello World from HMM model
24919000: system.cpu.l1i.prefetcher: Hello World from HMM model
24987000: system.cpu.l1i.prefetcher: Hello World from HMM model
24995000: system.cpu.l1d.prefetcher: Hello World from HMM model
25051000: system.cpu.l1i.prefetcher: Hello World from HMM model
25115000: system.cpu.l1i.prefetcher: Hello World from HMM model
25179000: system.cpu.l1i.prefetcher: Hello World from HMM model
25243000: system.cpu.l1i.prefetcher: Hello World from HMM model
25311000: system.cpu.l1i.prefetcher: Hello World from HMM model
25375000: system.cpu.l1i.prefetcher: Hello World from HMM model
25439000: system.cpu.l1i.prefetcher: Hello World from HMM model
25503000: system.cpu.l1i.prefetcher: Hello World from HMM model
25567000: system.cpu.l1i.prefetcher: Hello World from HMM model
25586000: system.cpu.l1d.prefetcher: Hello World from HMM model
25631000: system.cpu.l1i.prefetcher: Hello World from HMM model
25637000: system.cpu.l1d.prefetcher: Hello World from HMM model
25695000: system.cpu.l1i.prefetcher: Hello World from HMM model
25763000: system.cpu.l1i.prefetcher: Hello World from HMM model
25827000: system.cpu.l1i.prefetcher: Hello World from HMM model
25891000: system.cpu.l1i.prefetcher: Hello World from HMM model
25968000: system.cpu.l1i.prefetcher: Hello World from HMM model
25984000: system.cpu.l1d.prefetcher: Hello World from HMM model
26032000: system.cpu.l1i.prefetcher: Hello World from HMM model
26210000: system.cpu.l1i.prefetcher: Hello World from HMM model
26330000: system.cpu.l1i.prefetcher: Hello World from HMM model
26340000: system.cpu.l1d.prefetcher: Hello World from HMM model
26394000: system.cpu.l1i.prefetcher: Hello World from HMM model
26433000: system.cpu.l1d.prefetcher: Hello World from HMM model
26458000: system.cpu.l1i.prefetcher: Hello World from HMM model
26522000: system.cpu.l1i.prefetcher: Hello World from HMM model
26586000: system.cpu.l1i.prefetcher: Hello World from HMM model
26650000: system.cpu.l1i.prefetcher: Hello World from HMM model
26726000: system.cpu.l1i.prefetcher: Hello World from HMM model
26790000: system.cpu.l1i.prefetcher: Hello World from HMM model
26854000: system.cpu.l1i.prefetcher: Hello World from HMM model
26922000: system.cpu.l1i.prefetcher: Hello World from HMM model
26988000: system.cpu.l1i.prefetcher: Hello World from HMM model
27062000: system.cpu.l1i.prefetcher: Hello World from HMM model
27276000: system.cpu.l1i.prefetcher: Hello World from HMM model
27340000: system.cpu.l1i.prefetcher: Hello World from HMM model
27404000: system.cpu.l1i.prefetcher: Hello World from HMM model
27487000: system.cpu.l1d.prefetcher: Hello World from HMM model
27495000: system.cpu.l1i.prefetcher: Hello World from HMM model
27559000: system.cpu.l1i.prefetcher: Hello World from HMM model
27623000: system.cpu.l1i.prefetcher: Hello World from HMM model
27635000: system.cpu.l1d.prefetcher: Hello World from HMM model
27691000: system.cpu.l1i.prefetcher: Hello World from HMM model
27789000: system.cpu.l1i.prefetcher: Hello World from HMM model
27857000: system.cpu.l1i.prefetcher: Hello World from HMM model
27961000: system.cpu.l1d.prefetcher: Hello World from HMM model
27973000: system.cpu.l1d.prefetcher: Hello World from HMM model
28023000: system.cpu.l1i.prefetcher: Hello World from HMM model
28116000: system.cpu.l1d.prefetcher: Hello World from HMM model
28127000: system.cpu.l1d.prefetcher: Hello World from HMM model
28210000: system.cpu.l1d.prefetcher: Hello World from HMM model
28221000: system.cpu.l1d.prefetcher: Hello World from HMM model
28304000: system.cpu.l1d.prefetcher: Hello World from HMM model
28315000: system.cpu.l1d.prefetcher: Hello World from HMM model
28398000: system.cpu.l1d.prefetcher: Hello World from HMM model
28409000: system.cpu.l1d.prefetcher: Hello World from HMM model
28492000: system.cpu.l1d.prefetcher: Hello World from HMM model
28503000: system.cpu.l1d.prefetcher: Hello World from HMM model
28586000: system.cpu.l1d.prefetcher: Hello World from HMM model
28597000: system.cpu.l1d.prefetcher: Hello World from HMM model
28680000: system.cpu.l1d.prefetcher: Hello World from HMM model
28691000: system.cpu.l1d.prefetcher: Hello World from HMM model
28774000: system.cpu.l1d.prefetcher: Hello World from HMM model
28785000: system.cpu.l1d.prefetcher: Hello World from HMM model
28956000: system.cpu.l1i.prefetcher: Hello World from HMM model
29024000: system.cpu.l1i.prefetcher: Hello World from HMM model
29100000: system.cpu.l1i.prefetcher: Hello World from HMM model
29164000: system.cpu.l1i.prefetcher: Hello World from HMM model
29169000: system.cpu.l1d.prefetcher: Hello World from HMM model
29228000: system.cpu.l1i.prefetcher: Hello World from HMM model
29341000: system.cpu.l1i.prefetcher: Hello World from HMM model
29430000: system.cpu.l1i.prefetcher: Hello World from HMM model
29517000: system.cpu.l1i.prefetcher: Hello World from HMM model
29581000: system.cpu.l1i.prefetcher: Hello World from HMM model
29677000: system.cpu.l1d.prefetcher: Hello World from HMM model
29684000: system.cpu.l1i.prefetcher: Hello World from HMM model
29833000: system.cpu.l1i.prefetcher: Hello World from HMM model
29924000: system.cpu.l1i.prefetcher: Hello World from HMM model
30015000: system.cpu.l1i.prefetcher: Hello World from HMM model
30105000: system.cpu.l1i.prefetcher: Hello World from HMM model
30182000: system.cpu.l1i.prefetcher: Hello World from HMM model
30248000: system.cpu.l1i.prefetcher: Hello World from HMM model
30312000: system.cpu.l1i.prefetcher: Hello World from HMM model
30380000: system.cpu.l1i.prefetcher: Hello World from HMM model
30477000: system.cpu.l1d.prefetcher: Hello World from HMM model
30483000: system.cpu.l1d.prefetcher: Hello World from HMM model
30573000: system.cpu.l1i.prefetcher: Hello World from HMM model
30664000: system.cpu.l1i.prefetcher: Hello World from HMM model
30689000: system.cpu.l1d.prefetcher: Hello World from HMM model
30728000: system.cpu.l1i.prefetcher: Hello World from HMM model
30796000: system.cpu.l1i.prefetcher: Hello World from HMM model
30862000: system.cpu.l1i.prefetcher: Hello World from HMM model
30953000: system.cpu.l1i.prefetcher: Hello World from HMM model
31044000: system.cpu.l1i.prefetcher: Hello World from HMM model
31108000: system.cpu.l1i.prefetcher: Hello World from HMM model
31180000: system.cpu.l1i.prefetcher: Hello World from HMM model
31538000: system.cpu.l1i.prefetcher: Hello World from HMM model
31615000: system.cpu.l1i.prefetcher: Hello World from HMM model
31692000: system.cpu.l1i.prefetcher: Hello World from HMM model
31761000: system.cpu.l1i.prefetcher: Hello World from HMM model
31848000: system.cpu.l1i.prefetcher: Hello World from HMM model
31858000: system.cpu.l1d.prefetcher: Hello World from HMM model
31859000: system.cpu.l1d.prefetcher: Hello World from HMM model
31959000: system.cpu.l1i.prefetcher: Hello World from HMM model
32027000: system.cpu.l1i.prefetcher: Hello World from HMM model
32091000: system.cpu.l1i.prefetcher: Hello World from HMM model
32182000: system.cpu.l1i.prefetcher: Hello World from HMM model
32246000: system.cpu.l1i.prefetcher: Hello World from HMM model
32310000: system.cpu.l1i.prefetcher: Hello World from HMM model
32324000: system.cpu.l1d.prefetcher: Hello World from HMM model
32384000: system.cpu.l1d.prefetcher: Hello World from HMM model
32421000: system.cpu.l1i.prefetcher: Hello World from HMM model
32437000: system.cpu.l1d.prefetcher: Hello World from HMM model
32439000: system.cpu.l1d.prefetcher: Hello World from HMM model
32508000: system.cpu.l1d.prefetcher: Hello World from HMM model
32535000: system.cpu.l1d.prefetcher: Hello World from HMM model
32573000: system.cpu.l1i.prefetcher: Hello World from HMM model
32715000: system.cpu.l1i.prefetcher: Hello World from HMM model
32800000: system.cpu.l1d.prefetcher: Hello World from HMM model
32844000: system.cpu.l1i.prefetcher: Hello World from HMM model
32908000: system.cpu.l1i.prefetcher: Hello World from HMM model
32972000: system.cpu.l1i.prefetcher: Hello World from HMM model
33040000: system.cpu.l1i.prefetcher: Hello World from HMM model
33142000: system.cpu.l1i.prefetcher: Hello World from HMM model
33221000: system.cpu.l1i.prefetcher: Hello World from HMM model
33285000: system.cpu.l1i.prefetcher: Hello World from HMM model
33349000: system.cpu.l1i.prefetcher: Hello World from HMM model
33449000: system.cpu.l1i.prefetcher: Hello World from HMM model
33526000: system.cpu.l1i.prefetcher: Hello World from HMM model
33590000: system.cpu.l1i.prefetcher: Hello World from HMM model
33654000: system.cpu.l1i.prefetcher: Hello World from HMM model
33718000: system.cpu.l1i.prefetcher: Hello World from HMM model
33786000: system.cpu.l1i.prefetcher: Hello World from HMM model
33793000: system.cpu.l1d.prefetcher: Hello World from HMM model
33797000: system.cpu.l1d.prefetcher: Hello World from HMM model
33850000: system.cpu.l1i.prefetcher: Hello World from HMM model
33856000: system.cpu.l1d.prefetcher: Hello World from HMM model
33857000: system.cpu.l1d.prefetcher: Hello World from HMM model
33931000: system.cpu.l1i.prefetcher: Hello World from HMM model
34001000: system.cpu.l1d.prefetcher: Hello World from HMM model
34002000: system.cpu.l1d.prefetcher: Hello World from HMM model
34079000: system.cpu.l1d.prefetcher: Hello World from HMM model
34080000: system.cpu.l1d.prefetcher: Hello World from HMM model
34157000: system.cpu.l1d.prefetcher: Hello World from HMM model
34158000: system.cpu.l1d.prefetcher: Hello World from HMM model
34235000: system.cpu.l1d.prefetcher: Hello World from HMM model
34236000: system.cpu.l1d.prefetcher: Hello World from HMM model
34313000: system.cpu.l1d.prefetcher: Hello World from HMM model
34314000: system.cpu.l1d.prefetcher: Hello World from HMM model
34391000: system.cpu.l1d.prefetcher: Hello World from HMM model
34392000: system.cpu.l1d.prefetcher: Hello World from HMM model
34469000: system.cpu.l1d.prefetcher: Hello World from HMM model
34470000: system.cpu.l1d.prefetcher: Hello World from HMM model
34547000: system.cpu.l1d.prefetcher: Hello World from HMM model
34548000: system.cpu.l1d.prefetcher: Hello World from HMM model
34625000: system.cpu.l1d.prefetcher: Hello World from HMM model
34626000: system.cpu.l1d.prefetcher: Hello World from HMM model
34703000: system.cpu.l1d.prefetcher: Hello World from HMM model
34704000: system.cpu.l1d.prefetcher: Hello World from HMM model
34781000: system.cpu.l1d.prefetcher: Hello World from HMM model
34782000: system.cpu.l1d.prefetcher: Hello World from HMM model
34859000: system.cpu.l1d.prefetcher: Hello World from HMM model
34860000: system.cpu.l1d.prefetcher: Hello World from HMM model
34937000: system.cpu.l1d.prefetcher: Hello World from HMM model
34938000: system.cpu.l1d.prefetcher: Hello World from HMM model
35015000: system.cpu.l1d.prefetcher: Hello World from HMM model
35016000: system.cpu.l1d.prefetcher: Hello World from HMM model
35106000: system.cpu.l1d.prefetcher: Hello World from HMM model
35107000: system.cpu.l1d.prefetcher: Hello World from HMM model
35184000: system.cpu.l1d.prefetcher: Hello World from HMM model
35185000: system.cpu.l1d.prefetcher: Hello World from HMM model
35281000: system.cpu.l1i.prefetcher: Hello World from HMM model
35400000: system.cpu.l1i.prefetcher: Hello World from HMM model
35468000: system.cpu.l1i.prefetcher: Hello World from HMM model
35572000: system.cpu.l1i.prefetcher: Hello World from HMM model
35686000: system.cpu.l1i.prefetcher: Hello World from HMM model
35750000: system.cpu.l1i.prefetcher: Hello World from HMM model
35814000: system.cpu.l1i.prefetcher: Hello World from HMM model
35882000: system.cpu.l1i.prefetcher: Hello World from HMM model
35950000: system.cpu.l1i.prefetcher: Hello World from HMM model
36018000: system.cpu.l1i.prefetcher: Hello World from HMM model
36084000: system.cpu.l1i.prefetcher: Hello World from HMM model
36148000: system.cpu.l1i.prefetcher: Hello World from HMM model
36212000: system.cpu.l1i.prefetcher: Hello World from HMM model
36317000: system.cpu.l1d.prefetcher: Hello World from HMM model
36317000: system.cpu.l1i.prefetcher: Hello World from HMM model
36318000: system.cpu.l1d.prefetcher: Hello World from HMM model
36422000: system.cpu.l1i.prefetcher: Hello World from HMM model
36488000: system.cpu.l1i.prefetcher: Hello World from HMM model
36560000: system.cpu.l1i.prefetcher: Hello World from HMM model
36624000: system.cpu.l1i.prefetcher: Hello World from HMM model
36688000: system.cpu.l1i.prefetcher: Hello World from HMM model
36752000: system.cpu.l1i.prefetcher: Hello World from HMM model
36816000: system.cpu.l1i.prefetcher: Hello World from HMM model
36880000: system.cpu.l1i.prefetcher: Hello World from HMM model
36944000: system.cpu.l1i.prefetcher: Hello World from HMM model
37018000: system.cpu.l1i.prefetcher: Hello World from HMM model
37092000: system.cpu.l1i.prefetcher: Hello World from HMM model
37158000: system.cpu.l1i.prefetcher: Hello World from HMM model
37230000: system.cpu.l1i.prefetcher: Hello World from HMM model
37294000: system.cpu.l1i.prefetcher: Hello World from HMM model
37358000: system.cpu.l1i.prefetcher: Hello World from HMM model
37444000: system.cpu.l1i.prefetcher: Hello World from HMM model
37513000: system.cpu.l1i.prefetcher: Hello World from HMM model
37599000: system.cpu.l1i.prefetcher: Hello World from HMM model
37670000: system.cpu.l1i.prefetcher: Hello World from HMM model
37755000: system.cpu.l1i.prefetcher: Hello World from HMM model
37842000: system.cpu.l1i.prefetcher: Hello World from HMM model
37951000: system.cpu.l1i.prefetcher: Hello World from HMM model
38033000: system.cpu.l1i.prefetcher: Hello World from HMM model
38103000: system.cpu.l1i.prefetcher: Hello World from HMM model
38176000: system.cpu.l1i.prefetcher: Hello World from HMM model
38240000: system.cpu.l1i.prefetcher: Hello World from HMM model
38304000: system.cpu.l1i.prefetcher: Hello World from HMM model
38370000: system.cpu.l1i.prefetcher: Hello World from HMM model
38436000: system.cpu.l1i.prefetcher: Hello World from HMM model
38535000: system.cpu.l1i.prefetcher: Hello World from HMM model
38607000: system.cpu.l1i.prefetcher: Hello World from HMM model
38673000: system.cpu.l1i.prefetcher: Hello World from HMM model
38685000: system.cpu.l1d.prefetcher: Hello World from HMM model
38737000: system.cpu.l1i.prefetcher: Hello World from HMM model
38834000: system.cpu.l1d.prefetcher: Hello World from HMM model
38933000: system.cpu.l1i.prefetcher: Hello World from HMM model
39273000: system.cpu.l1i.prefetcher: Hello World from HMM model
39350000: system.cpu.l1i.prefetcher: Hello World from HMM model
39371000: system.cpu.l1d.prefetcher: Hello World from HMM model
39414000: system.cpu.l1i.prefetcher: Hello World from HMM model
39482000: system.cpu.l1i.prefetcher: Hello World from HMM model
39555000: system.cpu.l1i.prefetcher: Hello World from HMM model
39900000: system.cpu.l1i.prefetcher: Hello World from HMM model
39972000: system.cpu.l1i.prefetcher: Hello World from HMM model
40036000: system.cpu.l1i.prefetcher: Hello World from HMM model
40100000: system.cpu.l1i.prefetcher: Hello World from HMM model
40124000: system.cpu.l1d.prefetcher: Hello World from HMM model
40164000: system.cpu.l1i.prefetcher: Hello World from HMM model
40172000: system.cpu.l1d.prefetcher: Hello World from HMM model
40228000: system.cpu.l1i.prefetcher: Hello World from HMM model
40292000: system.cpu.l1i.prefetcher: Hello World from HMM model
40356000: system.cpu.l1i.prefetcher: Hello World from HMM model
40424000: system.cpu.l1i.prefetcher: Hello World from HMM model
40511000: system.cpu.l1i.prefetcher: Hello World from HMM model
40575000: system.cpu.l1i.prefetcher: Hello World from HMM model
40648000: system.cpu.l1i.prefetcher: Hello World from HMM model
40752000: system.cpu.l1i.prefetcher: Hello World from HMM model
40816000: system.cpu.l1i.prefetcher: Hello World from HMM model
40882000: system.cpu.l1i.prefetcher: Hello World from HMM model
40951000: system.cpu.l1i.prefetcher: Hello World from HMM model
41024000: system.cpu.l1i.prefetcher: Hello World from HMM model
41110000: system.cpu.l1i.prefetcher: Hello World from HMM model
41363000: system.cpu.l1d.prefetcher: Hello World from HMM model
41723000: system.cpu.l1i.prefetcher: Hello World from HMM model
41817000: system.cpu.l1i.prefetcher: Hello World from HMM model
41933000: system.cpu.l1i.prefetcher: Hello World from HMM model
42006000: system.cpu.l1i.prefetcher: Hello World from HMM model
42107000: system.cpu.l1i.prefetcher: Hello World from HMM model
42190000: system.cpu.l1i.prefetcher: Hello World from HMM model
42660000: system.cpu.l1i.prefetcher: Hello World from HMM model
42834000: system.cpu.l1i.prefetcher: Hello World from HMM model
42916000: system.cpu.l1i.prefetcher: Hello World from HMM model
43543000: system.cpu.l1i.prefetcher: Hello World from HMM model
43624000: system.cpu.l1i.prefetcher: Hello World from HMM model
43688000: system.cpu.l1i.prefetcher: Hello World from HMM model
44417000: system.cpu.l1i.prefetcher: Hello World from HMM model
44483000: system.cpu.l1i.prefetcher: Hello World from HMM model
44555000: system.cpu.l1i.prefetcher: Hello World from HMM model
44707000: system.cpu.l1d.prefetcher: Hello World from HMM model
44868000: system.cpu.l1i.prefetcher: Hello World from HMM model
44945000: system.cpu.l1i.prefetcher: Hello World from HMM model
44968000: system.cpu.l1d.prefetcher: Hello World from HMM model
45009000: system.cpu.l1i.prefetcher: Hello World from HMM model
45073000: system.cpu.l1i.prefetcher: Hello World from HMM model
45164000: system.cpu.l1i.prefetcher: Hello World from HMM model
45228000: system.cpu.l1i.prefetcher: Hello World from HMM model
45303000: system.cpu.l1d.prefetcher: Hello World from HMM model
45426000: system.cpu.l1i.prefetcher: Hello World from HMM model
45494000: system.cpu.l1i.prefetcher: Hello World from HMM model
45567000: system.cpu.l1i.prefetcher: Hello World from HMM model
45631000: system.cpu.l1i.prefetcher: Hello World from HMM model
45695000: system.cpu.l1i.prefetcher: Hello World from HMM model
45776000: system.cpu.l1i.prefetcher: Hello World from HMM model
45840000: system.cpu.l1i.prefetcher: Hello World from HMM model
45904000: system.cpu.l1i.prefetcher: Hello World from HMM model
45968000: system.cpu.l1i.prefetcher: Hello World from HMM model
46036000: system.cpu.l1i.prefetcher: Hello World from HMM model
46133000: system.cpu.l1d.prefetcher: Hello World from HMM model
46280000: system.cpu.l1i.prefetcher: Hello World from HMM model
46344000: system.cpu.l1i.prefetcher: Hello World from HMM model
46435000: system.cpu.l1i.prefetcher: Hello World from HMM model
46499000: system.cpu.l1i.prefetcher: Hello World from HMM model
46563000: system.cpu.l1i.prefetcher: Hello World from HMM model
46627000: system.cpu.l1i.prefetcher: Hello World from HMM model
46691000: system.cpu.l1i.prefetcher: Hello World from HMM model
46757000: system.cpu.l1i.prefetcher: Hello World from HMM model
47060000: system.cpu.l1i.prefetcher: Hello World from HMM model
47124000: system.cpu.l1i.prefetcher: Hello World from HMM model
47207000: system.cpu.l1i.prefetcher: Hello World from HMM model
47273000: system.cpu.l1i.prefetcher: Hello World from HMM model
47337000: system.cpu.l1i.prefetcher: Hello World from HMM model
47348000: system.cpu.l1d.prefetcher: Hello World from HMM model
47408000: system.cpu.l1i.prefetcher: Hello World from HMM model
47501000: system.cpu.l1i.prefetcher: Hello World from HMM model
47583000: system.cpu.l1i.prefetcher: Hello World from HMM model
47722000: system.cpu.l1i.prefetcher: Hello World from HMM model
47772000: system.cpu.l1d.prefetcher: Hello World from HMM model
47776000: system.cpu.l1d.prefetcher: Hello World from HMM model
47848000: system.cpu.l1d.prefetcher: Hello World from HMM model
47979000: system.cpu.l1d.prefetcher: Hello World from HMM model
48061000: system.cpu.l1i.prefetcher: Hello World from HMM model
48125000: system.cpu.l1i.prefetcher: Hello World from HMM model
48189000: system.cpu.l1i.prefetcher: Hello World from HMM model
48315000: system.cpu.l1d.prefetcher: Hello World from HMM model
48403000: system.cpu.l1i.prefetcher: Hello World from HMM model
48476000: system.cpu.l1i.prefetcher: Hello World from HMM model
48607000: system.cpu.l1d.prefetcher: Hello World from HMM model
48620000: system.cpu.l1i.prefetcher: Hello World from HMM model
48986000: system.cpu.l1i.prefetcher: Hello World from HMM model
49092000: system.cpu.l1d.prefetcher: Hello World from HMM model
49108000: system.cpu.l1d.prefetcher: Hello World from HMM model
49171000: system.cpu.l1i.prefetcher: Hello World from HMM model
49771000: system.cpu.l1i.prefetcher: Hello World from HMM model
50011000: system.cpu.l1i.prefetcher: Hello World from HMM model
50273000: system.cpu.l1d.prefetcher: Hello World from HMM model
50358000: system.cpu.l1i.prefetcher: Hello World from HMM model
50360000: system.cpu.l1d.prefetcher: Hello World from HMM model
50757000: system.cpu.l1d.prefetcher: Hello World from HMM model
50841000: system.cpu.l1i.prefetcher: Hello World from HMM model
50869000: system.cpu.l1d.prefetcher: Hello World from HMM model
50957000: system.cpu.l1i.prefetcher: Hello World from HMM model
50975000: system.cpu.l1d.prefetcher: Hello World from HMM model
51021000: system.cpu.l1i.prefetcher: Hello World from HMM model
51068000: system.cpu.l1d.prefetcher: Hello World from HMM model
51069000: system.cpu.l1d.prefetcher: Hello World from HMM model
51085000: system.cpu.l1i.prefetcher: Hello World from HMM model
51252000: system.cpu.l1d.prefetcher: Hello World from HMM model
51253000: system.cpu.l1d.prefetcher: Hello World from HMM model
51421000: system.cpu.l1d.prefetcher: Hello World from HMM model
51447000: system.cpu.l1d.prefetcher: Hello World from HMM model
51620000: system.cpu.l1d.prefetcher: Hello World from HMM model
51639000: system.cpu.l1i.prefetcher: Hello World from HMM model
51715000: system.cpu.l1i.prefetcher: Hello World from HMM model
52207000: system.cpu.l1i.prefetcher: Hello World from HMM model
52477000: system.cpu.l1i.prefetcher: Hello World from HMM model
52658000: system.cpu.l1d.prefetcher: Hello World from HMM model
52801000: system.cpu.l1i.prefetcher: Hello World from HMM model
52990000: system.cpu.l1i.prefetcher: Hello World from HMM model
53293000: system.cpu.l1i.prefetcher: Hello World from HMM model
53361000: system.cpu.l1i.prefetcher: Hello World from HMM model
53429000: system.cpu.l1i.prefetcher: Hello World from HMM model
53435000: system.cpu.l1d.prefetcher: Hello World from HMM model
53773000: system.cpu.l1d.prefetcher: Hello World from HMM model
53895000: system.cpu.l1d.prefetcher: Hello World from HMM model
53896000: system.cpu.l1d.prefetcher: Hello World from HMM model
54005000: system.cpu.l1i.prefetcher: Hello World from HMM model
54082000: system.cpu.l1i.prefetcher: Hello World from HMM model
54150000: system.cpu.l1i.prefetcher: Hello World from HMM model
54214000: system.cpu.l1i.prefetcher: Hello World from HMM model
54305000: system.cpu.l1i.prefetcher: Hello World from HMM model
54373000: system.cpu.l1i.prefetcher: Hello World from HMM model
54442000: system.cpu.l1i.prefetcher: Hello World from HMM model
54559000: system.cpu.l1i.prefetcher: Hello World from HMM model
54847000: system.cpu.l1i.prefetcher: Hello World from HMM model
54911000: system.cpu.l1i.prefetcher: Hello World from HMM model
54986000: system.cpu.l1i.prefetcher: Hello World from HMM model
55063000: system.cpu.l1i.prefetcher: Hello World from HMM model
55127000: system.cpu.l1i.prefetcher: Hello World from HMM model
55193000: system.cpu.l1i.prefetcher: Hello World from HMM model
55257000: system.cpu.l1i.prefetcher: Hello World from HMM model
55321000: system.cpu.l1i.prefetcher: Hello World from HMM model
55390000: system.cpu.l1i.prefetcher: Hello World from HMM model
55395000: system.cpu.l1d.prefetcher: Hello World from HMM model
55399000: system.cpu.l1d.prefetcher: Hello World from HMM model
55454000: system.cpu.l1i.prefetcher: Hello World from HMM model
55531000: system.cpu.l1i.prefetcher: Hello World from HMM model
55622000: system.cpu.l1i.prefetcher: Hello World from HMM model
55699000: system.cpu.l1i.prefetcher: Hello World from HMM model
55706000: system.cpu.l1d.prefetcher: Hello World from HMM model
55763000: system.cpu.l1i.prefetcher: Hello World from HMM model
55768000: system.cpu.l1d.prefetcher: Hello World from HMM model
55827000: system.cpu.l1i.prefetcher: Hello World from HMM model
55933000: system.cpu.l1i.prefetcher: Hello World from HMM model
56010000: system.cpu.l1i.prefetcher: Hello World from HMM model
56074000: system.cpu.l1i.prefetcher: Hello World from HMM model
56083000: system.cpu.l1d.prefetcher: Hello World from HMM model
56138000: system.cpu.l1i.prefetcher: Hello World from HMM model
56202000: system.cpu.l1i.prefetcher: Hello World from HMM model
56266000: system.cpu.l1i.prefetcher: Hello World from HMM model
56271000: system.cpu.l1d.prefetcher: Hello World from HMM model
56330000: system.cpu.l1i.prefetcher: Hello World from HMM model
56342000: system.cpu.l1d.prefetcher: Hello World from HMM model
56394000: system.cpu.l1i.prefetcher: Hello World from HMM model
56469000: system.cpu.l1i.prefetcher: Hello World from HMM model
56537000: system.cpu.l1i.prefetcher: Hello World from HMM model
56638000: system.cpu.l1i.prefetcher: Hello World from HMM model
56651000: system.cpu.l1d.prefetcher: Hello World from HMM model
56652000: system.cpu.l1d.prefetcher: Hello World from HMM model
56702000: system.cpu.l1i.prefetcher: Hello World from HMM model
56782000: system.cpu.l1i.prefetcher: Hello World from HMM model
56859000: system.cpu.l1i.prefetcher: Hello World from HMM model
56875000: system.cpu.l1i.prefetcher: Hello World from HMM model
56941000: system.cpu.l1i.prefetcher: Hello World from HMM model
57005000: system.cpu.l1i.prefetcher: Hello World from HMM model
57123000: system.cpu.l1i.prefetcher: Hello World from HMM model
57187000: system.cpu.l1i.prefetcher: Hello World from HMM model
57251000: system.cpu.l1i.prefetcher: Hello World from HMM model
57315000: system.cpu.l1i.prefetcher: Hello World from HMM model
57392000: system.cpu.l1i.prefetcher: Hello World from HMM model
57397000: system.cpu.l1d.prefetcher: Hello World from HMM model
57456000: system.cpu.l1i.prefetcher: Hello World from HMM model
57520000: system.cpu.l1i.prefetcher: Hello World from HMM model
57584000: system.cpu.l1i.prefetcher: Hello World from HMM model
57648000: system.cpu.l1i.prefetcher: Hello World from HMM model
57654000: system.cpu.l1d.prefetcher: Hello World from HMM model
57655000: system.cpu.l1d.prefetcher: Hello World from HMM model
57744000: system.cpu.l1d.prefetcher: Hello World from HMM model
57892000: system.cpu.l1i.prefetcher: Hello World from HMM model
57983000: system.cpu.l1i.prefetcher: Hello World from HMM model
57999000: system.cpu.l1i.prefetcher: Hello World from HMM model
58036000: system.cpu.l1i.prefetcher: Hello World from HMM model
58139000: system.cpu.l1i.prefetcher: Hello World from HMM model
58203000: system.cpu.l1i.prefetcher: Hello World from HMM model
58267000: system.cpu.l1i.prefetcher: Hello World from HMM model
58331000: system.cpu.l1i.prefetcher: Hello World from HMM model
58395000: system.cpu.l1i.prefetcher: Hello World from HMM model
58459000: system.cpu.l1i.prefetcher: Hello World from HMM model
58536000: system.cpu.l1d.prefetcher: Hello World from HMM model
58714000: system.cpu.l1i.prefetcher: Hello World from HMM model
58853000: system.cpu.l1i.prefetcher: Hello World from HMM model
58930000: system.cpu.l1i.prefetcher: Hello World from HMM model
58996000: system.cpu.l1i.prefetcher: Hello World from HMM model
59062000: system.cpu.l1i.prefetcher: Hello World from HMM model
59137000: system.cpu.l1i.prefetcher: Hello World from HMM model
59213000: system.cpu.l1i.prefetcher: Hello World from HMM model
59304000: system.cpu.l1i.prefetcher: Hello World from HMM model
59370000: system.cpu.l1i.prefetcher: Hello World from HMM model
59382000: system.cpu.l1d.prefetcher: Hello World from HMM model
59383000: system.cpu.l1d.prefetcher: Hello World from HMM model
59434000: system.cpu.l1i.prefetcher: Hello World from HMM model
59500000: system.cpu.l1i.prefetcher: Hello World from HMM model
59571000: system.cpu.l1d.prefetcher: Hello World from HMM model
59648000: system.cpu.l1d.prefetcher: Hello World from HMM model
59723000: system.cpu.l1i.prefetcher: Hello World from HMM model
59787000: system.cpu.l1i.prefetcher: Hello World from HMM model
59868000: system.cpu.l1i.prefetcher: Hello World from HMM model
59932000: system.cpu.l1i.prefetcher: Hello World from HMM model
59996000: system.cpu.l1i.prefetcher: Hello World from HMM model
60060000: system.cpu.l1i.prefetcher: Hello World from HMM model
60124000: system.cpu.l1i.prefetcher: Hello World from HMM model
60132000: system.cpu.l1d.prefetcher: Hello World from HMM model
60188000: system.cpu.l1i.prefetcher: Hello World from HMM model
60233000: system.cpu.l1d.prefetcher: Hello World from HMM model
60234000: system.cpu.l1d.prefetcher: Hello World from HMM model
60252000: system.cpu.l1i.prefetcher: Hello World from HMM model
60326000: system.cpu.l1i.prefetcher: Hello World from HMM model
60330000: system.cpu.l1d.prefetcher: Hello World from HMM model
60404000: system.cpu.l1i.prefetcher: Hello World from HMM model
60467000: system.cpu.l1i.prefetcher: Hello World from HMM model
60530000: system.cpu.l1i.prefetcher: Hello World from HMM model
60626000: system.cpu.l1d.prefetcher: Hello World from HMM model
60725000: system.cpu.l1d.prefetcher: Hello World from HMM model
60949000: system.cpu.l1d.prefetcher: Hello World from HMM model
61021000: system.cpu.l1d.prefetcher: Hello World from HMM model
61245000: system.cpu.l1d.prefetcher: Hello World from HMM model
61317000: system.cpu.l1d.prefetcher: Hello World from HMM model
61542000: system.cpu.l1d.prefetcher: Hello World from HMM model
61614000: system.cpu.l1d.prefetcher: Hello World from HMM model
61838000: system.cpu.l1d.prefetcher: Hello World from HMM model
61910000: system.cpu.l1d.prefetcher: Hello World from HMM model
62134000: system.cpu.l1d.prefetcher: Hello World from HMM model
62206000: system.cpu.l1d.prefetcher: Hello World from HMM model
62430000: system.cpu.l1d.prefetcher: Hello World from HMM model
62642000: system.cpu.l1d.prefetcher: Hello World from HMM model
62867000: system.cpu.l1d.prefetcher: Hello World from HMM model
62939000: system.cpu.l1d.prefetcher: Hello World from HMM model
63163000: system.cpu.l1d.prefetcher: Hello World from HMM model
63235000: system.cpu.l1d.prefetcher: Hello World from HMM model
63459000: system.cpu.l1d.prefetcher: Hello World from HMM model
63531000: system.cpu.l1d.prefetcher: Hello World from HMM model
63755000: system.cpu.l1d.prefetcher: Hello World from HMM model
63827000: system.cpu.l1d.prefetcher: Hello World from HMM model
64052000: system.cpu.l1d.prefetcher: Hello World from HMM model
64124000: system.cpu.l1d.prefetcher: Hello World from HMM model
64348000: system.cpu.l1d.prefetcher: Hello World from HMM model
64420000: system.cpu.l1d.prefetcher: Hello World from HMM model
64644000: system.cpu.l1d.prefetcher: Hello World from HMM model
64716000: system.cpu.l1d.prefetcher: Hello World from HMM model
64940000: system.cpu.l1d.prefetcher: Hello World from HMM model
65025000: system.cpu.l1d.prefetcher: Hello World from HMM model
65250000: system.cpu.l1d.prefetcher: Hello World from HMM model
65322000: system.cpu.l1d.prefetcher: Hello World from HMM model
65546000: system.cpu.l1d.prefetcher: Hello World from HMM model
65618000: system.cpu.l1d.prefetcher: Hello World from HMM model
65842000: system.cpu.l1d.prefetcher: Hello World from HMM model
65914000: system.cpu.l1d.prefetcher: Hello World from HMM model
66138000: system.cpu.l1d.prefetcher: Hello World from HMM model
66210000: system.cpu.l1d.prefetcher: Hello World from HMM model
66435000: system.cpu.l1d.prefetcher: Hello World from HMM model
66507000: system.cpu.l1d.prefetcher: Hello World from HMM model
66731000: system.cpu.l1d.prefetcher: Hello World from HMM model
66803000: system.cpu.l1d.prefetcher: Hello World from HMM model
67027000: system.cpu.l1d.prefetcher: Hello World from HMM model
67099000: system.cpu.l1d.prefetcher: Hello World from HMM model
67323000: system.cpu.l1d.prefetcher: Hello World from HMM model
67408000: system.cpu.l1d.prefetcher: Hello World from HMM model
67633000: system.cpu.l1d.prefetcher: Hello World from HMM model
67705000: system.cpu.l1d.prefetcher: Hello World from HMM model
67929000: system.cpu.l1d.prefetcher: Hello World from HMM model
68001000: system.cpu.l1d.prefetcher: Hello World from HMM model
68225000: system.cpu.l1d.prefetcher: Hello World from HMM model
68297000: system.cpu.l1d.prefetcher: Hello World from HMM model
68521000: system.cpu.l1d.prefetcher: Hello World from HMM model
68593000: system.cpu.l1d.prefetcher: Hello World from HMM model
68818000: system.cpu.l1d.prefetcher: Hello World from HMM model
68890000: system.cpu.l1d.prefetcher: Hello World from HMM model
69114000: system.cpu.l1d.prefetcher: Hello World from HMM model
69186000: system.cpu.l1d.prefetcher: Hello World from HMM model
69410000: system.cpu.l1d.prefetcher: Hello World from HMM model
69482000: system.cpu.l1d.prefetcher: Hello World from HMM model
69706000: system.cpu.l1d.prefetcher: Hello World from HMM model
69791000: system.cpu.l1d.prefetcher: Hello World from HMM model
70016000: system.cpu.l1d.prefetcher: Hello World from HMM model
70088000: system.cpu.l1d.prefetcher: Hello World from HMM model
70581000: system.cpu.l1d.prefetcher: Hello World from HMM model
70653000: system.cpu.l1d.prefetcher: Hello World from HMM model
70877000: system.cpu.l1d.prefetcher: Hello World from HMM model
70949000: system.cpu.l1d.prefetcher: Hello World from HMM model
71173000: system.cpu.l1d.prefetcher: Hello World from HMM model
71245000: system.cpu.l1d.prefetcher: Hello World from HMM model
71470000: system.cpu.l1d.prefetcher: Hello World from HMM model
71542000: system.cpu.l1d.prefetcher: Hello World from HMM model
71766000: system.cpu.l1d.prefetcher: Hello World from HMM model
71838000: system.cpu.l1d.prefetcher: Hello World from HMM model
72062000: system.cpu.l1d.prefetcher: Hello World from HMM model
72134000: system.cpu.l1d.prefetcher: Hello World from HMM model
72358000: system.cpu.l1d.prefetcher: Hello World from HMM model
72430000: system.cpu.l1d.prefetcher: Hello World from HMM model
72655000: system.cpu.l1d.prefetcher: Hello World from HMM model
72727000: system.cpu.l1d.prefetcher: Hello World from HMM model
72964000: system.cpu.l1d.prefetcher: Hello World from HMM model
73036000: system.cpu.l1d.prefetcher: Hello World from HMM model
73260000: system.cpu.l1d.prefetcher: Hello World from HMM model
73332000: system.cpu.l1d.prefetcher: Hello World from HMM model
73556000: system.cpu.l1d.prefetcher: Hello World from HMM model
73628000: system.cpu.l1d.prefetcher: Hello World from HMM model
73853000: system.cpu.l1d.prefetcher: Hello World from HMM model
73925000: system.cpu.l1d.prefetcher: Hello World from HMM model
74149000: system.cpu.l1d.prefetcher: Hello World from HMM model
74221000: system.cpu.l1d.prefetcher: Hello World from HMM model
74445000: system.cpu.l1d.prefetcher: Hello World from HMM model
74517000: system.cpu.l1d.prefetcher: Hello World from HMM model
74741000: system.cpu.l1d.prefetcher: Hello World from HMM model
74813000: system.cpu.l1d.prefetcher: Hello World from HMM model
75038000: system.cpu.l1d.prefetcher: Hello World from HMM model
75110000: system.cpu.l1d.prefetcher: Hello World from HMM model
75347000: system.cpu.l1d.prefetcher: Hello World from HMM model
75419000: system.cpu.l1d.prefetcher: Hello World from HMM model
75643000: system.cpu.l1d.prefetcher: Hello World from HMM model
75715000: system.cpu.l1d.prefetcher: Hello World from HMM model
75939000: system.cpu.l1d.prefetcher: Hello World from HMM model
76011000: system.cpu.l1d.prefetcher: Hello World from HMM model
76236000: system.cpu.l1d.prefetcher: Hello World from HMM model
76308000: system.cpu.l1d.prefetcher: Hello World from HMM model
76532000: system.cpu.l1d.prefetcher: Hello World from HMM model
76604000: system.cpu.l1d.prefetcher: Hello World from HMM model
76828000: system.cpu.l1d.prefetcher: Hello World from HMM model
76900000: system.cpu.l1d.prefetcher: Hello World from HMM model
77124000: system.cpu.l1d.prefetcher: Hello World from HMM model
77196000: system.cpu.l1d.prefetcher: Hello World from HMM model
77421000: system.cpu.l1d.prefetcher: Hello World from HMM model
77493000: system.cpu.l1d.prefetcher: Hello World from HMM model
77730000: system.cpu.l1d.prefetcher: Hello World from HMM model
77802000: system.cpu.l1d.prefetcher: Hello World from HMM model
78026000: system.cpu.l1d.prefetcher: Hello World from HMM model
78216000: system.cpu.l1d.prefetcher: Hello World from HMM model
78440000: system.cpu.l1d.prefetcher: Hello World from HMM model
78512000: system.cpu.l1d.prefetcher: Hello World from HMM model
78737000: system.cpu.l1d.prefetcher: Hello World from HMM model
78809000: system.cpu.l1d.prefetcher: Hello World from HMM model
79033000: system.cpu.l1d.prefetcher: Hello World from HMM model
79105000: system.cpu.l1d.prefetcher: Hello World from HMM model
79329000: system.cpu.l1d.prefetcher: Hello World from HMM model
79401000: system.cpu.l1d.prefetcher: Hello World from HMM model
79625000: system.cpu.l1d.prefetcher: Hello World from HMM model
79697000: system.cpu.l1d.prefetcher: Hello World from HMM model
79928000: system.cpu.l1i.prefetcher: Hello World from HMM model
80027000: system.cpu.l1i.prefetcher: Hello World from HMM model
80093000: system.cpu.l1i.prefetcher: Hello World from HMM model
80109000: system.cpu.l1i.prefetcher: Hello World from HMM model
91551000: system.cpu.l1i.prefetcher: Hello World from HMM model
434452000: system.cpu.l1i.prefetcher: Hello World from HMM model
434494000: system.cpu.l1i.prefetcher: Hello World from HMM model
434593000: system.cpu.l1i.prefetcher: Hello World from HMM model
434617000: system.cpu.l1d.prefetcher: Hello World from HMM model
434657000: system.cpu.l1i.prefetcher: Hello World from HMM model
434731000: system.cpu.l1i.prefetcher: Hello World from HMM model
434802000: system.cpu.l1i.prefetcher: Hello World from HMM model
434876000: system.cpu.l1i.prefetcher: Hello World from HMM model
434953000: system.cpu.l1i.prefetcher: Hello World from HMM model
435035000: system.cpu.l1d.prefetcher: Hello World from HMM model
435225000: system.cpu.l1i.prefetcher: Hello World from HMM model
435302000: system.cpu.l1i.prefetcher: Hello World from HMM model
435366000: system.cpu.l1i.prefetcher: Hello World from HMM model
435430000: system.cpu.l1i.prefetcher: Hello World from HMM model
435496000: system.cpu.l1i.prefetcher: Hello World from HMM model
435564000: system.cpu.l1i.prefetcher: Hello World from HMM model
435633000: system.cpu.l1i.prefetcher: Hello World from HMM model
435725000: system.cpu.l1i.prefetcher: Hello World from HMM model
435789000: system.cpu.l1i.prefetcher: Hello World from HMM model
435866000: system.cpu.l1i.prefetcher: Hello World from HMM model
435934000: system.cpu.l1i.prefetcher: Hello World from HMM model
436025000: system.cpu.l1i.prefetcher: Hello World from HMM model
436089000: system.cpu.l1i.prefetcher: Hello World from HMM model
436409000: system.cpu.l1i.prefetcher: Hello World from HMM model
436504000: system.cpu.l1i.prefetcher: Hello World from HMM model
436524000: system.cpu.l1d.prefetcher: Hello World from HMM model
436602000: system.cpu.l1i.prefetcher: Hello World from HMM model
436679000: system.cpu.l1i.prefetcher: Hello World from HMM model
436743000: system.cpu.l1i.prefetcher: Hello World from HMM model
436807000: system.cpu.l1i.prefetcher: Hello World from HMM model
436871000: system.cpu.l1i.prefetcher: Hello World from HMM model
436935000: system.cpu.l1i.prefetcher: Hello World from HMM model
436999000: system.cpu.l1i.prefetcher: Hello World from HMM model
437063000: system.cpu.l1i.prefetcher: Hello World from HMM model
437131000: system.cpu.l1i.prefetcher: Hello World from HMM model
437136000: system.cpu.l1d.prefetcher: Hello World from HMM model
437195000: system.cpu.l1i.prefetcher: Hello World from HMM model
437229000: system.cpu.l1d.prefetcher: Hello World from HMM model
437259000: system.cpu.l1i.prefetcher: Hello World from HMM model
437323000: system.cpu.l1i.prefetcher: Hello World from HMM model
437331000: system.cpu.l1d.prefetcher: Hello World from HMM model
437389000: system.cpu.l1i.prefetcher: Hello World from HMM model
437393000: system.cpu.l1d.prefetcher: Hello World from HMM model
437466000: system.cpu.l1i.prefetcher: Hello World from HMM model
437538000: system.cpu.l1d.prefetcher: Hello World from HMM model
437604000: system.cpu.l1d.prefetcher: Hello World from HMM model
437667000: system.cpu.l1d.prefetcher: Hello World from HMM model
437730000: system.cpu.l1d.prefetcher: Hello World from HMM model
437731000: system.cpu.l1d.prefetcher: Hello World from HMM model
437821000: system.cpu.l1d.prefetcher: Hello World from HMM model
437887000: system.cpu.l1d.prefetcher: Hello World from HMM model
437950000: system.cpu.l1d.prefetcher: Hello World from HMM model
438044000: system.cpu.l1d.prefetcher: Hello World from HMM model
438138000: system.cpu.l1i.prefetcher: Hello World from HMM model
438242000: system.cpu.l1i.prefetcher: Hello World from HMM model
438306000: system.cpu.l1i.prefetcher: Hello World from HMM model
438383000: system.cpu.l1i.prefetcher: Hello World from HMM model
438447000: system.cpu.l1i.prefetcher: Hello World from HMM model
438517000: system.cpu.l1i.prefetcher: Hello World from HMM model
438585000: system.cpu.l1i.prefetcher: Hello World from HMM model
438656000: system.cpu.l1i.prefetcher: Hello World from HMM model
438738000: system.cpu.l1d.prefetcher: Hello World from HMM model
438811000: system.cpu.l1i.prefetcher: Hello World from HMM model
438875000: system.cpu.l1i.prefetcher: Hello World from HMM model
438970000: system.cpu.l1i.prefetcher: Hello World from HMM model
439050000: system.cpu.l1i.prefetcher: Hello World from HMM model
439127000: system.cpu.l1i.prefetcher: Hello World from HMM model
439195000: system.cpu.l1i.prefetcher: Hello World from HMM model
Exit Eventexiting with last active thread context
Dump stats at the end of the ROI!
