gem5 Simulator System.  http://gem5.org
gem5 is copyrighted software; use the --copyright option for details.

gem5 version 20.1.0.2
gem5 compiled Dec  7 2021 03:10:33
gem5 started Dec  7 2021 03:12:45
gem5 executing on ARCH-750, pid 857925
command line: /data/home/ycc32/450_project/gem5/build/X86/gem5.opt --debug-flags=HWPrefetch -re --outdir=/data/home/ycc32/450_project/gem5/results/X86/run_micro/MI/Minor4/Slow/DDR3_2133_8x8/1GHz gem5-config/run_micro.py Minor4 Slow microbenchmark/MI/bench.X86 DDR3_2133_8x8 --clock=1GHz

1GHz CPU speed and DRAM = DDR3_2133_8x8
system.py: init L2 cache with size 1MB
Global frequency set at 1000000000000 ticks per second
   1000: system.cpu.l1i.prefetcher: PC:   0X401BE0
   1000: system.cpu.l1i.prefetcher: Spatial Region address:        0X3
   1000: system.cpu.l1i.prefetcher: Spatial Region physical address:     0X1BC0
   1000: system.cpu.l1i.prefetcher: Spatial Region offset:        0XF
   1000: system.cpu.l1i.prefetcher: PST address added: 0X200DF000F
  79000: system.cpu.l1i.prefetcher: PC:   0X401C00
  79000: system.cpu.l1i.prefetcher: Spatial Region address:        0X3
  79000: system.cpu.l1i.prefetcher: Spatial Region physical address:     0X1C00
  79000: system.cpu.l1i.prefetcher: Spatial Region offset:       0X10
  79000: system.cpu.l1i.prefetcher: PST address added: 0X200E00010
  82000: system.cpu.l1d.prefetcher: PC:   0X401BE9
  82000: system.cpu.l1d.prefetcher: Spatial Region address:      0X18B
  82000: system.cpu.l1d.prefetcher: Spatial Region physical address:    0XC5E50
  82000: system.cpu.l1d.prefetcher: Spatial Region offset:       0X19
  82000: system.cpu.l1d.prefetcher: PST address added: 0X200DF4819
 143000: system.cpu.l1i.prefetcher: PC:   0X401C40
 143000: system.cpu.l1i.prefetcher: Spatial Region address:        0X3
 143000: system.cpu.l1i.prefetcher: Spatial Region physical address:     0X1C40
 143000: system.cpu.l1i.prefetcher: Spatial Region offset:       0X11
 143000: system.cpu.l1i.prefetcher: PST address added: 0X200E20011
 167000: system.cpu.l1d.prefetcher: PC:   0X401C08
 167000: system.cpu.l1d.prefetcher: Spatial Region address:      0X18B
 167000: system.cpu.l1d.prefetcher: Spatial Region physical address:    0XC5E38
 167000: system.cpu.l1d.prefetcher: Spatial Region offset:       0X18
 167000: system.cpu.l1d.prefetcher: PST address added: 0X200E04018
 207000: system.cpu.l1i.prefetcher: PC:   0X402460
 207000: system.cpu.l1i.prefetcher: Spatial Region address:        0X4
 207000: system.cpu.l1i.prefetcher: Spatial Region physical address:     0X2440
 207000: system.cpu.l1i.prefetcher: Spatial Region offset:       0X11
 207000: system.cpu.l1i.prefetcher: PST address added: 0X201230011
 284000: system.cpu.l1i.prefetcher: PC:   0X402480
 284000: system.cpu.l1i.prefetcher: Spatial Region address:        0X4
 284000: system.cpu.l1i.prefetcher: Spatial Region physical address:     0X2480
 284000: system.cpu.l1i.prefetcher: Spatial Region offset:       0X12
 284000: system.cpu.l1i.prefetcher: PST address added: 0X201240012
 348000: system.cpu.l1i.prefetcher: PC:   0X4024C0
 348000: system.cpu.l1i.prefetcher: Spatial Region address:        0X4
 348000: system.cpu.l1i.prefetcher: Spatial Region physical address:     0X24C0
 348000: system.cpu.l1i.prefetcher: Spatial Region offset:       0X13
 348000: system.cpu.l1i.prefetcher: PST address added: 0X201260013
 352000: system.cpu.l1d.prefetcher: PC:   0X40247E
 352000: system.cpu.l1d.prefetcher: Spatial Region address:      0X18B
 352000: system.cpu.l1d.prefetcher: Spatial Region physical address:    0XC5D40
 352000: system.cpu.l1d.prefetcher: Spatial Region offset:       0X15
 352000: system.cpu.l1d.prefetcher: PST address added: 0X20123F015
 355000: system.cpu.l1d.prefetcher: PC:   0X40248A
 355000: system.cpu.l1d.prefetcher: Spatial Region address:      0X18B
 355000: system.cpu.l1d.prefetcher: Spatial Region physical address:    0XC5D48
 355000: system.cpu.l1d.prefetcher: Spatial Region offset:       0X15
 355000: system.cpu.l1d.prefetcher: PST address added: 0X201245015
 414000: system.cpu.l1d.prefetcher: PC:   0X40248F
 414000: system.cpu.l1d.prefetcher: Spatial Region address:      0X18B
 414000: system.cpu.l1d.prefetcher: Spatial Region physical address:    0XC5D3C
 414000: system.cpu.l1d.prefetcher: Spatial Region offset:       0X14
 414000: system.cpu.l1d.prefetcher: PST address added: 0X201247814
 416000: system.cpu.l1i.prefetcher: PC:   0X402500
 416000: system.cpu.l1i.prefetcher: Spatial Region address:        0X4
 416000: system.cpu.l1i.prefetcher: Spatial Region physical address:     0X2500
 416000: system.cpu.l1i.prefetcher: Spatial Region offset:       0X14
 416000: system.cpu.l1i.prefetcher: PST address added: 0X201280014
 420000: system.cpu.l1d.prefetcher: PC:   0X4024A1
 420000: system.cpu.l1d.prefetcher: Spatial Region address:      0X180
 420000: system.cpu.l1d.prefetcher: Spatial Region physical address:    0XC06C8
 420000: system.cpu.l1d.prefetcher: Spatial Region offset:       0X1B
 420000: system.cpu.l1d.prefetcher: PST address added: 0X20125081B
 487000: system.cpu.l1i.prefetcher: PC:   0X401C80
 487000: system.cpu.l1i.prefetcher: Spatial Region address:        0X3
 487000: system.cpu.l1i.prefetcher: Spatial Region physical address:     0X1C80
 487000: system.cpu.l1i.prefetcher: Spatial Region offset:       0X12
 487000: system.cpu.l1i.prefetcher: PST address added: 0X200E40012
 585000: system.cpu.l1i.prefetcher: PC:   0X402540
 585000: system.cpu.l1i.prefetcher: Spatial Region address:        0X4
 585000: system.cpu.l1i.prefetcher: Spatial Region physical address:     0X2540
 585000: system.cpu.l1i.prefetcher: Spatial Region offset:       0X15
 585000: system.cpu.l1i.prefetcher: PST address added: 0X2012A0015
 589000: system.cpu.l1d.prefetcher: PC:   0X4024C3
 589000: system.cpu.l1d.prefetcher: Spatial Region address:      0X183
 589000: system.cpu.l1d.prefetcher: Spatial Region physical address:    0XC1CE8
 589000: system.cpu.l1d.prefetcher: Spatial Region offset:       0X13
 589000: system.cpu.l1d.prefetcher: PST address added: 0X201261813
 592000: system.cpu.l1d.prefetcher: PC:   0X4024CA
 592000: system.cpu.l1d.prefetcher: Spatial Region address:      0X17D
 592000: system.cpu.l1d.prefetcher: Spatial Region physical address:    0XBEA70
 592000: system.cpu.l1d.prefetcher: Spatial Region offset:        0X9
 592000: system.cpu.l1d.prefetcher: PST address added: 0X201265009
 649000: system.cpu.l1i.prefetcher: PC:   0X402580
 649000: system.cpu.l1i.prefetcher: Spatial Region address:        0X4
 649000: system.cpu.l1i.prefetcher: Spatial Region physical address:     0X2580
 649000: system.cpu.l1i.prefetcher: Spatial Region offset:       0X16
 649000: system.cpu.l1i.prefetcher: PST address added: 0X2012C0016
 713000: system.cpu.l1i.prefetcher: PC:   0X44C760
 713000: system.cpu.l1i.prefetcher: Spatial Region address:       0X98
 713000: system.cpu.l1i.prefetcher: Spatial Region physical address:    0X4C740
 713000: system.cpu.l1i.prefetcher: Spatial Region offset:       0X1D
 713000: system.cpu.l1i.prefetcher: PST address added: 0X2263B001D
 790000: system.cpu.l1i.prefetcher: PC:   0X44C780
 790000: system.cpu.l1i.prefetcher: Spatial Region address:       0X98
 790000: system.cpu.l1i.prefetcher: Spatial Region physical address:    0X4C780
 790000: system.cpu.l1i.prefetcher: Spatial Region offset:       0X1E
 790000: system.cpu.l1i.prefetcher: PST address added: 0X2263C001E
 797000: system.cpu.l1d.prefetcher: PC:   0X44C767
 797000: system.cpu.l1d.prefetcher: Spatial Region address:      0X188
 797000: system.cpu.l1d.prefetcher: Spatial Region physical address:    0XC47E0
 797000: system.cpu.l1d.prefetcher: Spatial Region offset:       0X1F
 797000: system.cpu.l1d.prefetcher: PST address added: 0X2263B381F
 803000: system.cpu.l1d.prefetcher: PC:   0X44C779
 803000: system.cpu.l1d.prefetcher: Spatial Region address:      0X183
 803000: system.cpu.l1d.prefetcher: Spatial Region physical address:    0XC1D00
 803000: system.cpu.l1d.prefetcher: Spatial Region offset:       0X14
 803000: system.cpu.l1d.prefetcher: PST address added: 0X2263BC814
 854000: system.cpu.l1i.prefetcher: PC:   0X44C7C0
 854000: system.cpu.l1i.prefetcher: Spatial Region address:       0X98
 854000: system.cpu.l1i.prefetcher: Spatial Region physical address:    0X4C7C0
 854000: system.cpu.l1i.prefetcher: Spatial Region offset:       0X1F
 854000: system.cpu.l1i.prefetcher: PST address added: 0X2263E001F
 868000: system.cpu.l1d.prefetcher: PC:   0X44C788
 868000: system.cpu.l1d.prefetcher: Spatial Region address:      0X189
 868000: system.cpu.l1d.prefetcher: Spatial Region physical address:    0XC4890
 868000: system.cpu.l1d.prefetcher: Spatial Region offset:        0X2
 868000: system.cpu.l1d.prefetcher: PST address added: 0X2263C4002
 918000: system.cpu.l1i.prefetcher: PC:   0X44C800
 918000: system.cpu.l1i.prefetcher: Spatial Region address:       0X99
 918000: system.cpu.l1i.prefetcher: Spatial Region physical address:    0X4C800
 918000: system.cpu.l1i.prefetcher: Spatial Region offset:          0
 918000: system.cpu.l1i.prefetcher: PST address added: 0X226400000
 933000: system.cpu.l1d.prefetcher: PC:   0X44C796
 933000: system.cpu.l1d.prefetcher: Spatial Region address:      0X180
 933000: system.cpu.l1d.prefetcher: Spatial Region physical address:    0XC0118
 933000: system.cpu.l1d.prefetcher: Spatial Region offset:        0X4
 933000: system.cpu.l1d.prefetcher: PST address added: 0X2263CB004
 982000: system.cpu.l1i.prefetcher: PC:   0X44C840
 982000: system.cpu.l1i.prefetcher: Spatial Region address:       0X99
 982000: system.cpu.l1i.prefetcher: Spatial Region physical address:    0X4C840
 982000: system.cpu.l1i.prefetcher: Spatial Region offset:        0X1
 997000: system.cpu.l1d.prefetcher: PC:   0X44C7A4
 997000: system.cpu.l1d.prefetcher: Spatial Region address:      0X189
 997000: system.cpu.l1d.prefetcher: Spatial Region physical address:    0XC4848
 997000: system.cpu.l1d.prefetcher: Spatial Region offset:        0X1
 997000: system.cpu.l1d.prefetcher: PST address added: 0X2263D2001
1060000: system.cpu.l1d.prefetcher: PC:   0X44C7AB
1060000: system.cpu.l1d.prefetcher: Spatial Region address:      0X189
1060000: system.cpu.l1d.prefetcher: Spatial Region physical address:    0XC4810
1060000: system.cpu.l1d.prefetcher: Spatial Region offset:          0
1128000: system.cpu.l1i.prefetcher: PC:   0X44C880
1128000: system.cpu.l1i.prefetcher: Spatial Region address:       0X99
1128000: system.cpu.l1i.prefetcher: Spatial Region physical address:    0X4C880
1128000: system.cpu.l1i.prefetcher: Spatial Region offset:        0X2
1130000: system.cpu.l1d.prefetcher: PC:   0X44C7BE
1130000: system.cpu.l1d.prefetcher: Spatial Region address:      0X18B
1130000: system.cpu.l1d.prefetcher: Spatial Region physical address:    0XC5CF8
1130000: system.cpu.l1d.prefetcher: Spatial Region offset:       0X13
1130000: system.cpu.l1d.prefetcher: PST address added: 0X2263DF013
1134000: system.cpu.l1d.prefetcher: PC:   0X44C7C6
1134000: system.cpu.l1d.prefetcher: Spatial Region address:      0X18B
1134000: system.cpu.l1d.prefetcher: Spatial Region physical address:    0XC5CD0
1134000: system.cpu.l1d.prefetcher: Spatial Region offset:       0X13
1134000: system.cpu.l1d.prefetcher: PST address added: 0X2263E3013
1195000: system.cpu.l1d.prefetcher: PC:   0X44C7CB
1195000: system.cpu.l1d.prefetcher: Spatial Region address:      0X17D
1195000: system.cpu.l1d.prefetcher: Spatial Region physical address:    0XBEAA0
1195000: system.cpu.l1d.prefetcher: Spatial Region offset:        0XA
1195000: system.cpu.l1d.prefetcher: PST address added: 0X2263E580A
1285000: system.cpu.l1i.prefetcher: PC:   0X44C8C0
1285000: system.cpu.l1i.prefetcher: Spatial Region address:       0X99
1285000: system.cpu.l1i.prefetcher: Spatial Region physical address:    0X4C8C0
1285000: system.cpu.l1i.prefetcher: Spatial Region offset:        0X3
1297000: system.cpu.l1d.prefetcher: PC:   0X44C842
1297000: system.cpu.l1d.prefetcher: Spatial Region address:      0X131
1297000: system.cpu.l1d.prefetcher: Spatial Region physical address:    0X98FD8
1297000: system.cpu.l1d.prefetcher: Spatial Region offset:       0X1F
1297000: system.cpu.l1d.prefetcher: PST address added: 0X22642101F
1375000: system.cpu.l1i.prefetcher: PC:   0X44C900
1375000: system.cpu.l1i.prefetcher: Spatial Region address:       0X99
1375000: system.cpu.l1i.prefetcher: Spatial Region physical address:    0X4C900
1375000: system.cpu.l1i.prefetcher: Spatial Region offset:        0X4
1439000: system.cpu.l1i.prefetcher: PC:   0X44C950
1439000: system.cpu.l1i.prefetcher: Spatial Region address:       0X99
1439000: system.cpu.l1i.prefetcher: Spatial Region physical address:    0X4C940
1439000: system.cpu.l1i.prefetcher: Spatial Region offset:        0X5
1503000: system.cpu.l1i.prefetcher: PC:   0X44C980
1503000: system.cpu.l1i.prefetcher: Spatial Region address:       0X99
1503000: system.cpu.l1i.prefetcher: Spatial Region physical address:    0X4C980
1503000: system.cpu.l1i.prefetcher: Spatial Region offset:        0X6
1512000: system.cpu.l1d.prefetcher: PC:   0X44C962
1512000: system.cpu.l1d.prefetcher: Spatial Region address:      0X18B
1512000: system.cpu.l1d.prefetcher: Spatial Region physical address:    0XC5E80
1512000: system.cpu.l1d.prefetcher: Spatial Region offset:       0X1A
1512000: system.cpu.l1d.prefetcher: PST address added: 0X2264B101A
1567000: system.cpu.l1i.prefetcher: PC:   0X44C9C0
1567000: system.cpu.l1i.prefetcher: Spatial Region address:       0X99
1567000: system.cpu.l1i.prefetcher: Spatial Region physical address:    0X4C9C0
1567000: system.cpu.l1i.prefetcher: Spatial Region offset:        0X7
1640000: system.cpu.l1d.prefetcher: PC:   0X44C842
1640000: system.cpu.l1d.prefetcher: Spatial Region address:      0X131
1640000: system.cpu.l1d.prefetcher: Spatial Region physical address:    0X98F94
1640000: system.cpu.l1d.prefetcher: Spatial Region offset:       0X1E
1640000: system.cpu.l1d.prefetcher: PST address added: 0X22642101E
1706000: system.cpu.l1i.prefetcher: PC:   0X44CA20
1706000: system.cpu.l1i.prefetcher: Spatial Region address:       0X99
1706000: system.cpu.l1i.prefetcher: Spatial Region physical address:    0X4CA00
1706000: system.cpu.l1i.prefetcher: Spatial Region offset:        0X8
1770000: system.cpu.l1i.prefetcher: PC:   0X44CA40
1770000: system.cpu.l1i.prefetcher: Spatial Region address:       0X99
1770000: system.cpu.l1i.prefetcher: Spatial Region physical address:    0X4CA40
1770000: system.cpu.l1i.prefetcher: Spatial Region offset:        0X9
1843000: system.cpu.l1d.prefetcher: PC:   0X44C842
1843000: system.cpu.l1d.prefetcher: Spatial Region address:      0X131
1843000: system.cpu.l1d.prefetcher: Spatial Region physical address:    0X98F6C
1843000: system.cpu.l1d.prefetcher: Spatial Region offset:       0X1D
1843000: system.cpu.l1d.prefetcher: PST address added: 0X22642101D
1909000: system.cpu.l1i.prefetcher: PC:   0X44CAF0
1909000: system.cpu.l1i.prefetcher: Spatial Region address:       0X99
1909000: system.cpu.l1i.prefetcher: Spatial Region physical address:    0X4CAC0
1909000: system.cpu.l1i.prefetcher: Spatial Region offset:        0XB
1973000: system.cpu.l1i.prefetcher: PC:   0X44CB00
1973000: system.cpu.l1i.prefetcher: Spatial Region address:       0X99
1973000: system.cpu.l1i.prefetcher: Spatial Region physical address:    0X4CB00
1973000: system.cpu.l1i.prefetcher: Spatial Region offset:        0XC
2037000: system.cpu.l1i.prefetcher: PC:   0X44CB40
2037000: system.cpu.l1i.prefetcher: Spatial Region address:       0X99
2037000: system.cpu.l1i.prefetcher: Spatial Region physical address:    0X4CB40
2037000: system.cpu.l1i.prefetcher: Spatial Region offset:        0XD
2123000: system.cpu.l1i.prefetcher: PC:   0X44CA80
2123000: system.cpu.l1i.prefetcher: Spatial Region address:       0X99
2123000: system.cpu.l1i.prefetcher: Spatial Region physical address:    0X4CA80
2123000: system.cpu.l1i.prefetcher: Spatial Region offset:        0XA
2217000: system.cpu.l1i.prefetcher: PC:   0X44CB80
2217000: system.cpu.l1i.prefetcher: Spatial Region address:       0X99
2217000: system.cpu.l1i.prefetcher: Spatial Region physical address:    0X4CB80
2217000: system.cpu.l1i.prefetcher: Spatial Region offset:        0XE
2222000: system.cpu.l1d.prefetcher: PC:   0X44CB44
2222000: system.cpu.l1d.prefetcher: Spatial Region address:      0X18B
2222000: system.cpu.l1d.prefetcher: Spatial Region physical address:    0XC5EC0
2222000: system.cpu.l1d.prefetcher: Spatial Region offset:       0X1B
2222000: system.cpu.l1d.prefetcher: PST address added: 0X2265A201B
2281000: system.cpu.l1i.prefetcher: PC:   0X44CBC0
2281000: system.cpu.l1i.prefetcher: Spatial Region address:       0X99
2281000: system.cpu.l1i.prefetcher: Spatial Region physical address:    0X4CBC0
2281000: system.cpu.l1i.prefetcher: Spatial Region offset:        0XF
2466000: system.cpu.l1d.prefetcher: PC:   0X44C860
2466000: system.cpu.l1d.prefetcher: Spatial Region address:      0X18B
2466000: system.cpu.l1d.prefetcher: Spatial Region physical address:    0XC5F00
2466000: system.cpu.l1d.prefetcher: Spatial Region offset:       0X1C
2466000: system.cpu.l1d.prefetcher: PST address added: 0X22643001C
2659000: system.cpu.l1d.prefetcher: PC:   0X44CA93
2659000: system.cpu.l1d.prefetcher: Spatial Region address:      0X18B
2659000: system.cpu.l1d.prefetcher: Spatial Region physical address:    0XC5F40
2659000: system.cpu.l1d.prefetcher: Spatial Region offset:       0X1D
2659000: system.cpu.l1d.prefetcher: PST address added: 0X22654981D
2856000: system.cpu.l1d.prefetcher: PC:   0X44C860
2856000: system.cpu.l1d.prefetcher: Spatial Region address:      0X18B
2856000: system.cpu.l1d.prefetcher: Spatial Region physical address:    0XC5F80
2856000: system.cpu.l1d.prefetcher: Spatial Region offset:       0X1E
2856000: system.cpu.l1d.prefetcher: PST address added: 0X22643001E
2981000: system.cpu.l1i.prefetcher: PC:   0X44CC00
2981000: system.cpu.l1i.prefetcher: Spatial Region address:       0X99
2981000: system.cpu.l1i.prefetcher: Spatial Region physical address:    0X4CC00
2981000: system.cpu.l1i.prefetcher: Spatial Region offset:       0X10
3190000: system.cpu.l1i.prefetcher: PC:   0X4025C0
3190000: system.cpu.l1i.prefetcher: Spatial Region address:        0X4
3190000: system.cpu.l1i.prefetcher: Spatial Region physical address:     0X25C0
3190000: system.cpu.l1i.prefetcher: Spatial Region offset:       0X17
3190000: system.cpu.l1i.prefetcher: PST address added: 0X2012E0017
3254000: system.cpu.l1i.prefetcher: PC:   0X44D8C0
3254000: system.cpu.l1i.prefetcher: Spatial Region address:       0X9B
3254000: system.cpu.l1i.prefetcher: Spatial Region physical address:    0X4D8C0
3254000: system.cpu.l1i.prefetcher: Spatial Region offset:        0X3
3254000: system.cpu.l1i.prefetcher: PST address added: 0X226C60003
3318000: system.cpu.l1i.prefetcher: PC:   0X44D900
3318000: system.cpu.l1i.prefetcher: Spatial Region address:       0X9B
3318000: system.cpu.l1i.prefetcher: Spatial Region physical address:    0X4D900
3318000: system.cpu.l1i.prefetcher: Spatial Region offset:        0X4
3318000: system.cpu.l1i.prefetcher: PST address added: 0X226C80004
3396000: system.cpu.l1i.prefetcher: PC:   0X44C160
3396000: system.cpu.l1i.prefetcher: Spatial Region address:       0X98
3396000: system.cpu.l1i.prefetcher: Spatial Region physical address:    0X4C140
3396000: system.cpu.l1i.prefetcher: Spatial Region offset:        0X5
3396000: system.cpu.l1i.prefetcher: PST address added: 0X2260B0005
3460000: system.cpu.l1i.prefetcher: PC:   0X44C180
3460000: system.cpu.l1i.prefetcher: Spatial Region address:       0X98
3460000: system.cpu.l1i.prefetcher: Spatial Region physical address:    0X4C180
3460000: system.cpu.l1i.prefetcher: Spatial Region offset:        0X6
3460000: system.cpu.l1i.prefetcher: PST address added: 0X2260C0006
3524000: system.cpu.l1i.prefetcher: PC:   0X44C1C0
3524000: system.cpu.l1i.prefetcher: Spatial Region address:       0X98
3524000: system.cpu.l1i.prefetcher: Spatial Region physical address:    0X4C1C0
3524000: system.cpu.l1i.prefetcher: Spatial Region offset:        0X7
3524000: system.cpu.l1i.prefetcher: PST address added: 0X2260E0007
3588000: system.cpu.l1i.prefetcher: PC:   0X44C2AA
3588000: system.cpu.l1i.prefetcher: Spatial Region address:       0X98
3588000: system.cpu.l1i.prefetcher: Spatial Region physical address:    0X4C280
3588000: system.cpu.l1i.prefetcher: Spatial Region offset:        0XA
3588000: system.cpu.l1i.prefetcher: PST address added: 0X22615500A
3652000: system.cpu.l1i.prefetcher: PC:   0X44C2C0
3652000: system.cpu.l1i.prefetcher: Spatial Region address:       0X98
3652000: system.cpu.l1i.prefetcher: Spatial Region physical address:    0X4C2C0
3652000: system.cpu.l1i.prefetcher: Spatial Region offset:        0XB
3652000: system.cpu.l1i.prefetcher: PST address added: 0X22616000B
3746000: system.cpu.l1d.prefetcher: PC:   0X40254F
3746000: system.cpu.l1d.prefetcher: Spatial Region address:      0X183
3746000: system.cpu.l1d.prefetcher: Spatial Region physical address:    0XC1D8C
3746000: system.cpu.l1d.prefetcher: Spatial Region offset:       0X16
3746000: system.cpu.l1d.prefetcher: PST address added: 0X2012A7816
3746000: system.cpu.l1i.prefetcher: PC:   0X402600
3746000: system.cpu.l1i.prefetcher: Spatial Region address:        0X4
3746000: system.cpu.l1i.prefetcher: Spatial Region physical address:     0X2600
3746000: system.cpu.l1i.prefetcher: Spatial Region offset:       0X18
3746000: system.cpu.l1i.prefetcher: PST address added: 0X201300018
3810000: system.cpu.l1i.prefetcher: PC:   0X4026CD
3810000: system.cpu.l1i.prefetcher: Spatial Region address:        0X4
3810000: system.cpu.l1i.prefetcher: Spatial Region physical address:     0X26C0
3810000: system.cpu.l1i.prefetcher: Spatial Region offset:       0X1B
3810000: system.cpu.l1i.prefetcher: PST address added: 0X20136681B
3874000: system.cpu.l1i.prefetcher: PC:   0X402700
3874000: system.cpu.l1i.prefetcher: Spatial Region address:        0X4
3874000: system.cpu.l1i.prefetcher: Spatial Region physical address:     0X2700
3874000: system.cpu.l1i.prefetcher: Spatial Region offset:       0X1C
3874000: system.cpu.l1i.prefetcher: PST address added: 0X20138001C
3938000: system.cpu.l1i.prefetcher: PC:   0X402C23
3938000: system.cpu.l1i.prefetcher: Spatial Region address:        0X5
3938000: system.cpu.l1i.prefetcher: Spatial Region physical address:     0X2C00
3938000: system.cpu.l1i.prefetcher: Spatial Region offset:       0X10
3938000: system.cpu.l1i.prefetcher: PST address added: 0X201611810
4002000: system.cpu.l1i.prefetcher: PC:   0X402C40
4002000: system.cpu.l1i.prefetcher: Spatial Region address:        0X5
4002000: system.cpu.l1i.prefetcher: Spatial Region physical address:     0X2C40
4002000: system.cpu.l1i.prefetcher: Spatial Region offset:       0X11
4002000: system.cpu.l1i.prefetcher: PST address added: 0X201620011
4080000: system.cpu.l1i.prefetcher: PC:   0X402640
4080000: system.cpu.l1i.prefetcher: Spatial Region address:        0X4
4080000: system.cpu.l1i.prefetcher: Spatial Region physical address:     0X2640
4080000: system.cpu.l1i.prefetcher: Spatial Region offset:       0X19
4080000: system.cpu.l1i.prefetcher: PST address added: 0X201320019
4144000: system.cpu.l1i.prefetcher: PC:   0X4020E0
4144000: system.cpu.l1i.prefetcher: Spatial Region address:        0X4
4144000: system.cpu.l1i.prefetcher: Spatial Region physical address:     0X20C0
4144000: system.cpu.l1i.prefetcher: Spatial Region offset:        0X3
4144000: system.cpu.l1i.prefetcher: PST address added: 0X201070003
4208000: system.cpu.l1i.prefetcher: PC:   0X402100
4208000: system.cpu.l1i.prefetcher: Spatial Region address:        0X4
4208000: system.cpu.l1i.prefetcher: Spatial Region physical address:     0X2100
4208000: system.cpu.l1i.prefetcher: Spatial Region offset:        0X4
4208000: system.cpu.l1i.prefetcher: PST address added: 0X201080004
4272000: system.cpu.l1i.prefetcher: PC:   0X402145
4272000: system.cpu.l1i.prefetcher: Spatial Region address:        0X4
4272000: system.cpu.l1i.prefetcher: Spatial Region physical address:     0X2140
4272000: system.cpu.l1i.prefetcher: Spatial Region offset:        0X5
4272000: system.cpu.l1i.prefetcher: PST address added: 0X2010A2805
4336000: system.cpu.l1i.prefetcher: PC:   0X402180
4336000: system.cpu.l1i.prefetcher: Spatial Region address:        0X4
4336000: system.cpu.l1i.prefetcher: Spatial Region physical address:     0X2180
4336000: system.cpu.l1i.prefetcher: Spatial Region offset:        0X6
4336000: system.cpu.l1i.prefetcher: PST address added: 0X2010C0006
4417000: system.cpu.l1i.prefetcher: PC:   0X4021C0
4417000: system.cpu.l1i.prefetcher: Spatial Region address:        0X4
4417000: system.cpu.l1i.prefetcher: Spatial Region physical address:     0X21C0
4417000: system.cpu.l1i.prefetcher: Spatial Region offset:        0X7
4417000: system.cpu.l1i.prefetcher: PST address added: 0X2010E0007
4485000: system.cpu.l1i.prefetcher: PC:   0X402200
4485000: system.cpu.l1i.prefetcher: Spatial Region address:        0X4
4485000: system.cpu.l1i.prefetcher: Spatial Region physical address:     0X2200
4485000: system.cpu.l1i.prefetcher: Spatial Region offset:        0X8
4485000: system.cpu.l1i.prefetcher: PST address added: 0X201100008
4549000: system.cpu.l1i.prefetcher: PC:   0X4022A4
4549000: system.cpu.l1i.prefetcher: Spatial Region address:        0X4
4549000: system.cpu.l1i.prefetcher: Spatial Region physical address:     0X2280
4549000: system.cpu.l1i.prefetcher: Spatial Region offset:        0XA
4549000: system.cpu.l1i.prefetcher: PST address added: 0X20115200A
4613000: system.cpu.l1i.prefetcher: PC:   0X4022C0
4613000: system.cpu.l1i.prefetcher: Spatial Region address:        0X4
4613000: system.cpu.l1i.prefetcher: Spatial Region physical address:     0X22C0
4613000: system.cpu.l1i.prefetcher: Spatial Region offset:        0XB
4716000: system.cpu.l1i.prefetcher: PC:   0X402680
4716000: system.cpu.l1i.prefetcher: Spatial Region address:        0X4
4716000: system.cpu.l1i.prefetcher: Spatial Region physical address:     0X2680
4716000: system.cpu.l1i.prefetcher: Spatial Region offset:       0X1A
4780000: system.cpu.l1i.prefetcher: PC:   0X44C6F0
4780000: system.cpu.l1i.prefetcher: Spatial Region address:       0X98
4780000: system.cpu.l1i.prefetcher: Spatial Region physical address:    0X4C6C0
4780000: system.cpu.l1i.prefetcher: Spatial Region offset:       0X1B
4780000: system.cpu.l1i.prefetcher: PST address added: 0X22637801B
4844000: system.cpu.l1i.prefetcher: PC:   0X44C700
4844000: system.cpu.l1i.prefetcher: Spatial Region address:       0X98
4844000: system.cpu.l1i.prefetcher: Spatial Region physical address:    0X4C700
4844000: system.cpu.l1i.prefetcher: Spatial Region offset:       0X1C
4844000: system.cpu.l1i.prefetcher: PST address added: 0X22638001C
4915000: system.cpu.l1d.prefetcher: PC:   0X44C70C
4915000: system.cpu.l1d.prefetcher: Spatial Region address:      0X17C
4915000: system.cpu.l1d.prefetcher: Spatial Region physical address:    0XBE7A8
4915000: system.cpu.l1d.prefetcher: Spatial Region offset:       0X1E
4915000: system.cpu.l1d.prefetcher: PST address added: 0X22638601E
4978000: system.cpu.l1d.prefetcher: PC:   0X44C710
4978000: system.cpu.l1d.prefetcher: Spatial Region address:      0X17C
4978000: system.cpu.l1d.prefetcher: Spatial Region physical address:    0XBE7C0
4978000: system.cpu.l1d.prefetcher: Spatial Region offset:       0X1F
4978000: system.cpu.l1d.prefetcher: PST address added: 0X22638801F
5109000: system.cpu.l1d.prefetcher: PC:   0X44C70C
5109000: system.cpu.l1d.prefetcher: Spatial Region address:      0X17C
5109000: system.cpu.l1d.prefetcher: Spatial Region physical address:    0XBE620
5109000: system.cpu.l1d.prefetcher: Spatial Region offset:       0X18
5109000: system.cpu.l1d.prefetcher: PST address added: 0X226386018
5200000: system.cpu.l1d.prefetcher: PC:   0X44C72C
5200000: system.cpu.l1d.prefetcher: Spatial Region address:      0X17C
5200000: system.cpu.l1d.prefetcher: Spatial Region physical address:    0XBE640
5200000: system.cpu.l1d.prefetcher: Spatial Region offset:       0X19
5200000: system.cpu.l1d.prefetcher: PST address added: 0X226396019
5288000: system.cpu.l1d.prefetcher: PC:   0X402605
5288000: system.cpu.l1d.prefetcher: Spatial Region address:      0X183
5288000: system.cpu.l1d.prefetcher: Spatial Region physical address:    0XC1DC0
5288000: system.cpu.l1d.prefetcher: Spatial Region offset:       0X17
5288000: system.cpu.l1d.prefetcher: PST address added: 0X201302817
5306000: system.cpu.l1d.prefetcher: PC:   0X44C70C
5306000: system.cpu.l1d.prefetcher: Spatial Region address:      0X17D
5306000: system.cpu.l1d.prefetcher: Spatial Region physical address:    0XBE888
5306000: system.cpu.l1d.prefetcher: Spatial Region offset:        0X2
5306000: system.cpu.l1d.prefetcher: PST address added: 0X226386002
5383000: system.cpu.l1d.prefetcher: PC:   0X44C758
5383000: system.cpu.l1d.prefetcher: Spatial Region address:      0X18B
5383000: system.cpu.l1d.prefetcher: Spatial Region physical address:    0XC5D80
5383000: system.cpu.l1d.prefetcher: Spatial Region offset:       0X16
5383000: system.cpu.l1d.prefetcher: PST address added: 0X2263AC016
5440000: system.cpu.l1d.prefetcher: PC:   0X44C70C
5440000: system.cpu.l1d.prefetcher: Spatial Region address:      0X17C
5440000: system.cpu.l1d.prefetcher: Spatial Region physical address:    0XBE4D0
5440000: system.cpu.l1d.prefetcher: Spatial Region offset:       0X13
5440000: system.cpu.l1d.prefetcher: PST address added: 0X226386013
5589000: system.cpu.l1d.prefetcher: PC:   0X44C70C
5589000: system.cpu.l1d.prefetcher: Spatial Region address:      0X17C
5589000: system.cpu.l1d.prefetcher: Spatial Region physical address:    0XBE770
5589000: system.cpu.l1d.prefetcher: Spatial Region offset:       0X1D
5589000: system.cpu.l1d.prefetcher: PST address added: 0X22638601D
5709000: system.cpu.l1i.prefetcher: PC:   0X402740
5709000: system.cpu.l1i.prefetcher: Spatial Region address:        0X4
5709000: system.cpu.l1i.prefetcher: Spatial Region physical address:     0X2740
5709000: system.cpu.l1i.prefetcher: Spatial Region offset:       0X1D
5709000: system.cpu.l1i.prefetcher: PST address added: 0X2013A001D
5853000: system.cpu.l1d.prefetcher: PC:   0X4026A1
5853000: system.cpu.l1d.prefetcher: Spatial Region address:          0
5853000: system.cpu.l1d.prefetcher: Spatial Region physical address:      0X2E8
5853000: system.cpu.l1d.prefetcher: Spatial Region offset:        0XB
5853000: system.cpu.l1d.prefetcher: PST address added: 0X20135080B
5949000: system.cpu.l1i.prefetcher: PC:   0X402780
5949000: system.cpu.l1i.prefetcher: Spatial Region address:        0X4
5949000: system.cpu.l1i.prefetcher: Spatial Region physical address:     0X2780
5949000: system.cpu.l1i.prefetcher: Spatial Region offset:       0X1E
5949000: system.cpu.l1i.prefetcher: PST address added: 0X2013C001E
6024000: system.cpu.l1i.prefetcher: PC:   0X421CD0
6024000: system.cpu.l1i.prefetcher: Spatial Region address:       0X43
6024000: system.cpu.l1i.prefetcher: Spatial Region physical address:    0X21CC0
6024000: system.cpu.l1i.prefetcher: Spatial Region offset:       0X13
6024000: system.cpu.l1i.prefetcher: PST address added: 0X210E68013
6115000: system.cpu.l1i.prefetcher: PC:   0X421D00
6115000: system.cpu.l1i.prefetcher: Spatial Region address:       0X43
6115000: system.cpu.l1i.prefetcher: Spatial Region physical address:    0X21D00
6115000: system.cpu.l1i.prefetcher: Spatial Region offset:       0X14
6115000: system.cpu.l1i.prefetcher: PST address added: 0X210E80014
6179000: system.cpu.l1i.prefetcher: PC:   0X421D40
6179000: system.cpu.l1i.prefetcher: Spatial Region address:       0X43
6179000: system.cpu.l1i.prefetcher: Spatial Region physical address:    0X21D40
6179000: system.cpu.l1i.prefetcher: Spatial Region offset:       0X15
6179000: system.cpu.l1i.prefetcher: PST address added: 0X210EA0015
6252000: system.cpu.l1d.prefetcher: PC:   0X4026A8
6252000: system.cpu.l1d.prefetcher: Spatial Region address:      0X17E
6252000: system.cpu.l1d.prefetcher: Spatial Region physical address:    0XBF0D0
6252000: system.cpu.l1d.prefetcher: Spatial Region offset:        0X3
6252000: system.cpu.l1d.prefetcher: PST address added: 0X201354003
6266000: system.cpu.l1d.prefetcher: PC:   0X4026A1
6266000: system.cpu.l1d.prefetcher: Spatial Region address:          0
6266000: system.cpu.l1d.prefetcher: Spatial Region physical address:      0X300
6266000: system.cpu.l1d.prefetcher: Spatial Region offset:        0XC
6266000: system.cpu.l1d.prefetcher: PST address added: 0X20135080C
6358000: system.cpu.l1i.prefetcher: PC:   0X421E40
6358000: system.cpu.l1i.prefetcher: Spatial Region address:       0X43
6358000: system.cpu.l1i.prefetcher: Spatial Region physical address:    0X21E40
6358000: system.cpu.l1i.prefetcher: Spatial Region offset:       0X19
6358000: system.cpu.l1i.prefetcher: PST address added: 0X210F20019
6449000: system.cpu.l1i.prefetcher: PC:   0X421E80
6449000: system.cpu.l1i.prefetcher: Spatial Region address:       0X43
6449000: system.cpu.l1i.prefetcher: Spatial Region physical address:    0X21E80
6449000: system.cpu.l1i.prefetcher: Spatial Region offset:       0X1A
6449000: system.cpu.l1i.prefetcher: PST address added: 0X210F4001A
6542000: system.cpu.l1i.prefetcher: PC:   0X484DD0
6542000: system.cpu.l1i.prefetcher: Spatial Region address:      0X109
6542000: system.cpu.l1i.prefetcher: Spatial Region physical address:    0X84DC0
6542000: system.cpu.l1i.prefetcher: Spatial Region offset:       0X17
6542000: system.cpu.l1i.prefetcher: PST address added: 0X2426E8017
6633000: system.cpu.l1i.prefetcher: PC:   0X484E00
6633000: system.cpu.l1i.prefetcher: Spatial Region address:      0X109
6633000: system.cpu.l1i.prefetcher: Spatial Region physical address:    0X84E00
6633000: system.cpu.l1i.prefetcher: Spatial Region offset:       0X18
6633000: system.cpu.l1i.prefetcher: PST address added: 0X242700018
6726000: system.cpu.l1i.prefetcher: PC:   0X421DE0
6726000: system.cpu.l1i.prefetcher: Spatial Region address:       0X43
6726000: system.cpu.l1i.prefetcher: Spatial Region physical address:    0X21DC0
6726000: system.cpu.l1i.prefetcher: Spatial Region offset:       0X17
6726000: system.cpu.l1i.prefetcher: PST address added: 0X210EF0017
6790000: system.cpu.l1i.prefetcher: PC:   0X421E00
6790000: system.cpu.l1i.prefetcher: Spatial Region address:       0X43
6790000: system.cpu.l1i.prefetcher: Spatial Region physical address:    0X21E00
6790000: system.cpu.l1i.prefetcher: Spatial Region offset:       0X18
6790000: system.cpu.l1i.prefetcher: PST address added: 0X210F00018
6863000: system.cpu.l1d.prefetcher: PC:   0X4026A8
6863000: system.cpu.l1d.prefetcher: Spatial Region address:      0X17E
6863000: system.cpu.l1d.prefetcher: Spatial Region physical address:    0XBF0B8
6863000: system.cpu.l1d.prefetcher: Spatial Region offset:        0X2
6863000: system.cpu.l1d.prefetcher: PST address added: 0X201354002
6864000: system.cpu.l1d.prefetcher: PC:   0X4026B8
6864000: system.cpu.l1d.prefetcher: Spatial Region address:          0
6864000: system.cpu.l1d.prefetcher: Spatial Region physical address:      0X340
6864000: system.cpu.l1d.prefetcher: Spatial Region offset:        0XD
6864000: system.cpu.l1d.prefetcher: PST address added: 0X20135C00D
6970000: system.cpu.l1i.prefetcher: PC:   0X4228B0
6970000: system.cpu.l1i.prefetcher: Spatial Region address:       0X45
6970000: system.cpu.l1i.prefetcher: Spatial Region physical address:    0X22880
6970000: system.cpu.l1i.prefetcher: Spatial Region offset:        0X2
6970000: system.cpu.l1i.prefetcher: PST address added: 0X211458002
7061000: system.cpu.l1i.prefetcher: PC:   0X4228C0
7061000: system.cpu.l1i.prefetcher: Spatial Region address:       0X45
7061000: system.cpu.l1i.prefetcher: Spatial Region physical address:    0X228C0
7061000: system.cpu.l1i.prefetcher: Spatial Region offset:        0X3
7061000: system.cpu.l1i.prefetcher: PST address added: 0X211460003
7125000: system.cpu.l1i.prefetcher: PC:   0X422900
7125000: system.cpu.l1i.prefetcher: Spatial Region address:       0X45
7125000: system.cpu.l1i.prefetcher: Spatial Region physical address:    0X22900
7125000: system.cpu.l1i.prefetcher: Spatial Region offset:        0X4
7125000: system.cpu.l1i.prefetcher: PST address added: 0X211480004
7191000: system.cpu.l1i.prefetcher: PC:   0X422940
7191000: system.cpu.l1i.prefetcher: Spatial Region address:       0X45
7191000: system.cpu.l1i.prefetcher: Spatial Region physical address:    0X22940
7191000: system.cpu.l1i.prefetcher: Spatial Region offset:        0X5
7191000: system.cpu.l1i.prefetcher: PST address added: 0X2114A0005
7257000: system.cpu.l1i.prefetcher: PC:   0X422980
7257000: system.cpu.l1i.prefetcher: Spatial Region address:       0X45
7257000: system.cpu.l1i.prefetcher: Spatial Region physical address:    0X22980
7257000: system.cpu.l1i.prefetcher: Spatial Region offset:        0X6
7257000: system.cpu.l1i.prefetcher: PST address added: 0X2114C0006
7350000: system.cpu.l1i.prefetcher: PC:   0X485070
7350000: system.cpu.l1i.prefetcher: Spatial Region address:      0X10A
7350000: system.cpu.l1i.prefetcher: Spatial Region physical address:    0X85040
7350000: system.cpu.l1i.prefetcher: Spatial Region offset:        0X1
7350000: system.cpu.l1i.prefetcher: PST address added: 0X242838001
7414000: system.cpu.l1i.prefetcher: PC:   0X485080
7414000: system.cpu.l1i.prefetcher: Spatial Region address:      0X10A
7414000: system.cpu.l1i.prefetcher: Spatial Region physical address:    0X85080
7414000: system.cpu.l1i.prefetcher: Spatial Region offset:        0X2
7478000: system.cpu.l1i.prefetcher: PC:   0X4850C0
7478000: system.cpu.l1i.prefetcher: Spatial Region address:      0X10A
7478000: system.cpu.l1i.prefetcher: Spatial Region physical address:    0X850C0
7478000: system.cpu.l1i.prefetcher: Spatial Region offset:        0X3
7544000: system.cpu.l1i.prefetcher: PC:   0X485100
7544000: system.cpu.l1i.prefetcher: Spatial Region address:      0X10A
7544000: system.cpu.l1i.prefetcher: Spatial Region physical address:    0X85100
7544000: system.cpu.l1i.prefetcher: Spatial Region offset:        0X4
7641000: system.cpu.l1i.prefetcher: PC:   0X421D80
7641000: system.cpu.l1i.prefetcher: Spatial Region address:       0X43
7641000: system.cpu.l1i.prefetcher: Spatial Region physical address:    0X21D80
7641000: system.cpu.l1i.prefetcher: Spatial Region offset:       0X16
7641000: system.cpu.l1i.prefetcher: PST address added: 0X210EC0016
7742000: system.cpu.l1d.prefetcher: PC:   0X4026B8
7742000: system.cpu.l1d.prefetcher: Spatial Region address:          0
7742000: system.cpu.l1d.prefetcher: Spatial Region physical address:      0X388
7742000: system.cpu.l1d.prefetcher: Spatial Region offset:        0XE
7742000: system.cpu.l1d.prefetcher: PST address added: 0X20135C00E
7743000: system.cpu.l1d.prefetcher: PC:   0X4026BC
7743000: system.cpu.l1d.prefetcher: Spatial Region address:          0
7743000: system.cpu.l1d.prefetcher: Spatial Region physical address:      0X380
7743000: system.cpu.l1d.prefetcher: Spatial Region offset:        0XE
7743000: system.cpu.l1d.prefetcher: PST address added: 0X20135E00E
7848000: system.cpu.l1i.prefetcher: PC:   0X470490
7848000: system.cpu.l1i.prefetcher: Spatial Region address:       0XE0
7848000: system.cpu.l1i.prefetcher: Spatial Region physical address:    0X70480
7848000: system.cpu.l1i.prefetcher: Spatial Region offset:       0X12
7848000: system.cpu.l1i.prefetcher: PST address added: 0X238248012
8125000: system.cpu.l1i.prefetcher: PC:   0X4704C0
8125000: system.cpu.l1i.prefetcher: Spatial Region address:       0XE0
8125000: system.cpu.l1i.prefetcher: Spatial Region physical address:    0X704C0
8125000: system.cpu.l1i.prefetcher: Spatial Region offset:       0X13
8125000: system.cpu.l1i.prefetcher: PST address added: 0X238260013
8189000: system.cpu.l1i.prefetcher: PC:   0X470500
8189000: system.cpu.l1i.prefetcher: Spatial Region address:       0XE0
8189000: system.cpu.l1i.prefetcher: Spatial Region physical address:    0X70500
8189000: system.cpu.l1i.prefetcher: Spatial Region offset:       0X14
8189000: system.cpu.l1i.prefetcher: PST address added: 0X238280014
8282000: system.cpu.l1i.prefetcher: PC:   0X422810
8282000: system.cpu.l1i.prefetcher: Spatial Region address:       0X45
8282000: system.cpu.l1i.prefetcher: Spatial Region physical address:    0X22800
8282000: system.cpu.l1i.prefetcher: Spatial Region offset:          0
8282000: system.cpu.l1i.prefetcher: PST address added: 0X211408000
8359000: system.cpu.l1i.prefetcher: PC:   0X422840
8359000: system.cpu.l1i.prefetcher: Spatial Region address:       0X45
8359000: system.cpu.l1i.prefetcher: Spatial Region physical address:    0X22840
8359000: system.cpu.l1i.prefetcher: Spatial Region offset:        0X1
8482000: system.cpu.l1d.prefetcher: PC:   0X4026A1
8482000: system.cpu.l1d.prefetcher: Spatial Region address:          0
8482000: system.cpu.l1d.prefetcher: Spatial Region physical address:      0X3C0
8482000: system.cpu.l1d.prefetcher: Spatial Region offset:        0XF
8482000: system.cpu.l1d.prefetcher: PST address added: 0X20135080F
8560000: system.cpu.l1i.prefetcher: PC:   0X485030
8560000: system.cpu.l1i.prefetcher: Spatial Region address:      0X10A
8560000: system.cpu.l1i.prefetcher: Spatial Region physical address:    0X85000
8560000: system.cpu.l1i.prefetcher: Spatial Region offset:          0
8560000: system.cpu.l1i.prefetcher: PST address added: 0X242818000
8653000: system.cpu.l1i.prefetcher: PC:   0X485140
8653000: system.cpu.l1i.prefetcher: Spatial Region address:      0X10A
8653000: system.cpu.l1i.prefetcher: Spatial Region physical address:    0X85140
8653000: system.cpu.l1i.prefetcher: Spatial Region offset:        0X5
8746000: system.cpu.l1i.prefetcher: PC:   0X4229D0
8746000: system.cpu.l1i.prefetcher: Spatial Region address:       0X45
8746000: system.cpu.l1i.prefetcher: Spatial Region physical address:    0X229C0
8746000: system.cpu.l1i.prefetcher: Spatial Region offset:        0X7
8810000: system.cpu.l1i.prefetcher: PC:   0X422A00
8810000: system.cpu.l1i.prefetcher: Spatial Region address:       0X45
8810000: system.cpu.l1i.prefetcher: Spatial Region physical address:    0X22A00
8810000: system.cpu.l1i.prefetcher: Spatial Region offset:        0X8
8876000: system.cpu.l1i.prefetcher: PC:   0X422A40
8876000: system.cpu.l1i.prefetcher: Spatial Region address:       0X45
8876000: system.cpu.l1i.prefetcher: Spatial Region physical address:    0X22A40
8876000: system.cpu.l1i.prefetcher: Spatial Region offset:        0X9
8969000: system.cpu.l1i.prefetcher: PC:   0X4226E0
8969000: system.cpu.l1i.prefetcher: Spatial Region address:       0X44
8969000: system.cpu.l1i.prefetcher: Spatial Region physical address:    0X226C0
8969000: system.cpu.l1i.prefetcher: Spatial Region offset:       0X1B
8969000: system.cpu.l1i.prefetcher: PST address added: 0X21137001B
9033000: system.cpu.l1i.prefetcher: PC:   0X422700
9033000: system.cpu.l1i.prefetcher: Spatial Region address:       0X44
9033000: system.cpu.l1i.prefetcher: Spatial Region physical address:    0X22700
9033000: system.cpu.l1i.prefetcher: Spatial Region offset:       0X1C
9033000: system.cpu.l1i.prefetcher: PST address added: 0X21138001C
9097000: system.cpu.l1i.prefetcher: PC:   0X422740
9097000: system.cpu.l1i.prefetcher: Spatial Region address:       0X44
9097000: system.cpu.l1i.prefetcher: Spatial Region physical address:    0X22740
9097000: system.cpu.l1i.prefetcher: Spatial Region offset:       0X1D
9097000: system.cpu.l1i.prefetcher: PST address added: 0X2113A001D
9170000: system.cpu.l1d.prefetcher: PC:   0X4026A8
9170000: system.cpu.l1d.prefetcher: Spatial Region address:      0X17E
9170000: system.cpu.l1d.prefetcher: Spatial Region physical address:    0XBF078
9170000: system.cpu.l1d.prefetcher: Spatial Region offset:        0X1
9170000: system.cpu.l1d.prefetcher: PST address added: 0X201354001
9171000: system.cpu.l1d.prefetcher: PC:   0X4026B8
9171000: system.cpu.l1d.prefetcher: Spatial Region address:          0
9171000: system.cpu.l1d.prefetcher: Spatial Region physical address:      0X400
9171000: system.cpu.l1d.prefetcher: Spatial Region offset:       0X10
9171000: system.cpu.l1d.prefetcher: PST address added: 0X20135C010
9271000: system.cpu.l1i.prefetcher: PC:   0X421EC0
9271000: system.cpu.l1i.prefetcher: Spatial Region address:       0X43
9271000: system.cpu.l1i.prefetcher: Spatial Region physical address:    0X21EC0
9271000: system.cpu.l1i.prefetcher: Spatial Region offset:       0X1B
9271000: system.cpu.l1i.prefetcher: PST address added: 0X210F6001B
9364000: system.cpu.l1i.prefetcher: PC:   0X421F00
9364000: system.cpu.l1i.prefetcher: Spatial Region address:       0X43
9364000: system.cpu.l1i.prefetcher: Spatial Region physical address:    0X21F00
9364000: system.cpu.l1i.prefetcher: Spatial Region offset:       0X1C
9364000: system.cpu.l1i.prefetcher: PST address added: 0X210F8001C
9471000: system.cpu.l1i.prefetcher: PC:   0X422780
9471000: system.cpu.l1i.prefetcher: Spatial Region address:       0X44
9471000: system.cpu.l1i.prefetcher: Spatial Region physical address:    0X22780
9471000: system.cpu.l1i.prefetcher: Spatial Region offset:       0X1E
9471000: system.cpu.l1i.prefetcher: PST address added: 0X2113C001E
9564000: system.cpu.l1i.prefetcher: PC:   0X46E530
9564000: system.cpu.l1i.prefetcher: Spatial Region address:       0XDC
9564000: system.cpu.l1i.prefetcher: Spatial Region physical address:    0X6E500
9564000: system.cpu.l1i.prefetcher: Spatial Region offset:       0X14
9564000: system.cpu.l1i.prefetcher: PST address added: 0X237298014
9641000: system.cpu.l1i.prefetcher: PC:   0X46E540
9641000: system.cpu.l1i.prefetcher: Spatial Region address:       0XDC
9641000: system.cpu.l1i.prefetcher: Spatial Region physical address:    0X6E540
9641000: system.cpu.l1i.prefetcher: Spatial Region offset:       0X15
9641000: system.cpu.l1i.prefetcher: PST address added: 0X2372A0015
9705000: system.cpu.l1i.prefetcher: PC:   0X46E580
9705000: system.cpu.l1i.prefetcher: Spatial Region address:       0XDC
9705000: system.cpu.l1i.prefetcher: Spatial Region physical address:    0X6E580
9705000: system.cpu.l1i.prefetcher: Spatial Region offset:       0X16
9705000: system.cpu.l1i.prefetcher: PST address added: 0X2372C0016
9779000: system.cpu.l1d.prefetcher: PC:   0X4026B8
9779000: system.cpu.l1d.prefetcher: Spatial Region address:          0
9779000: system.cpu.l1d.prefetcher: Spatial Region physical address:      0X448
9779000: system.cpu.l1d.prefetcher: Spatial Region offset:       0X11
9779000: system.cpu.l1d.prefetcher: PST address added: 0X20135C011
9780000: system.cpu.l1d.prefetcher: PC:   0X4026BC
9780000: system.cpu.l1d.prefetcher: Spatial Region address:          0
9780000: system.cpu.l1d.prefetcher: Spatial Region physical address:      0X440
9780000: system.cpu.l1d.prefetcher: Spatial Region offset:       0X11
9780000: system.cpu.l1d.prefetcher: PST address added: 0X20135E011
9885000: system.cpu.l1i.prefetcher: PC:   0X422B20
9885000: system.cpu.l1i.prefetcher: Spatial Region address:       0X45
9885000: system.cpu.l1i.prefetcher: Spatial Region physical address:    0X22B00
9885000: system.cpu.l1i.prefetcher: Spatial Region offset:        0XC
9949000: system.cpu.l1i.prefetcher: PC:   0X422B40
9949000: system.cpu.l1i.prefetcher: Spatial Region address:       0X45
9949000: system.cpu.l1i.prefetcher: Spatial Region physical address:    0X22B40
9949000: system.cpu.l1i.prefetcher: Spatial Region offset:        0XD
10013000: system.cpu.l1i.prefetcher: PC:   0X422B80
10013000: system.cpu.l1i.prefetcher: Spatial Region address:       0X45
10013000: system.cpu.l1i.prefetcher: Spatial Region physical address:    0X22B80
10013000: system.cpu.l1i.prefetcher: Spatial Region offset:        0XE
10138000: system.cpu.l1i.prefetcher: PC:   0X422A80
10138000: system.cpu.l1i.prefetcher: Spatial Region address:       0X45
10138000: system.cpu.l1i.prefetcher: Spatial Region physical address:    0X22A80
10138000: system.cpu.l1i.prefetcher: Spatial Region offset:        0XA
10225000: system.cpu.l1d.prefetcher: PC:   0X4026A1
10225000: system.cpu.l1d.prefetcher: Spatial Region address:          0
10225000: system.cpu.l1d.prefetcher: Spatial Region physical address:      0X480
10225000: system.cpu.l1d.prefetcher: Spatial Region offset:       0X12
10225000: system.cpu.l1d.prefetcher: PST address added: 0X201350812
10290000: system.cpu.l1i.prefetcher: PC:   0X46E470
10290000: system.cpu.l1i.prefetcher: Spatial Region address:       0XDC
10290000: system.cpu.l1i.prefetcher: Spatial Region physical address:    0X6E440
10290000: system.cpu.l1i.prefetcher: Spatial Region offset:       0X11
10290000: system.cpu.l1i.prefetcher: PST address added: 0X237238011
10354000: system.cpu.l1i.prefetcher: PC:   0X46E480
10354000: system.cpu.l1i.prefetcher: Spatial Region address:       0XDC
10354000: system.cpu.l1i.prefetcher: Spatial Region physical address:    0X6E480
10354000: system.cpu.l1i.prefetcher: Spatial Region offset:       0X12
10354000: system.cpu.l1i.prefetcher: PST address added: 0X237240012
10418000: system.cpu.l1i.prefetcher: PC:   0X46E4C0
10418000: system.cpu.l1i.prefetcher: Spatial Region address:       0XDC
10418000: system.cpu.l1i.prefetcher: Spatial Region physical address:    0X6E4C0
10418000: system.cpu.l1i.prefetcher: Spatial Region offset:       0X13
10418000: system.cpu.l1i.prefetcher: PST address added: 0X237260013
10511000: system.cpu.l1i.prefetcher: PC:   0X46FD80
10511000: system.cpu.l1i.prefetcher: Spatial Region address:       0XDF
10511000: system.cpu.l1i.prefetcher: Spatial Region physical address:    0X6FD80
10511000: system.cpu.l1i.prefetcher: Spatial Region offset:       0X16
10511000: system.cpu.l1i.prefetcher: PST address added: 0X237EC0016
10575000: system.cpu.l1i.prefetcher: PC:   0X46FDC0
10575000: system.cpu.l1i.prefetcher: Spatial Region address:       0XDF
10575000: system.cpu.l1i.prefetcher: Spatial Region physical address:    0X6FDC0
10575000: system.cpu.l1i.prefetcher: Spatial Region offset:       0X17
10575000: system.cpu.l1i.prefetcher: PST address added: 0X237EE0017
10678000: system.cpu.l1i.prefetcher: PC:   0X422AC0
10678000: system.cpu.l1i.prefetcher: Spatial Region address:       0X45
10678000: system.cpu.l1i.prefetcher: Spatial Region physical address:    0X22AC0
10678000: system.cpu.l1i.prefetcher: Spatial Region offset:        0XB
10774000: system.cpu.l1i.prefetcher: PC:   0X422BC0
10774000: system.cpu.l1i.prefetcher: Spatial Region address:       0X45
10774000: system.cpu.l1i.prefetcher: Spatial Region physical address:    0X22BC0
10774000: system.cpu.l1i.prefetcher: Spatial Region offset:        0XF
10847000: system.cpu.l1d.prefetcher: PC:   0X4026A8
10847000: system.cpu.l1d.prefetcher: Spatial Region address:      0X17E
10847000: system.cpu.l1d.prefetcher: Spatial Region physical address:    0XBF038
10847000: system.cpu.l1d.prefetcher: Spatial Region offset:          0
10848000: system.cpu.l1d.prefetcher: PC:   0X4026B8
10848000: system.cpu.l1d.prefetcher: Spatial Region address:          0
10848000: system.cpu.l1d.prefetcher: Spatial Region physical address:      0X4C0
10848000: system.cpu.l1d.prefetcher: Spatial Region offset:       0X13
10848000: system.cpu.l1d.prefetcher: PST address added: 0X20135C013
10988000: system.cpu.l1i.prefetcher: PC:   0X4227C0
10988000: system.cpu.l1i.prefetcher: Spatial Region address:       0X44
10988000: system.cpu.l1i.prefetcher: Spatial Region physical address:    0X227C0
10988000: system.cpu.l1i.prefetcher: Spatial Region offset:       0X1F
10988000: system.cpu.l1i.prefetcher: PST address added: 0X2113E001F
11115000: system.cpu.l1i.prefetcher: PC:   0X46E430
11115000: system.cpu.l1i.prefetcher: Spatial Region address:       0XDC
11115000: system.cpu.l1i.prefetcher: Spatial Region physical address:    0X6E400
11115000: system.cpu.l1i.prefetcher: Spatial Region offset:       0X10
11115000: system.cpu.l1i.prefetcher: PST address added: 0X237218010
11208000: system.cpu.l1d.prefetcher: PC:   0X4026B8
11208000: system.cpu.l1d.prefetcher: Spatial Region address:          0
11208000: system.cpu.l1d.prefetcher: Spatial Region physical address:      0X508
11208000: system.cpu.l1d.prefetcher: Spatial Region offset:       0X14
11208000: system.cpu.l1d.prefetcher: PST address added: 0X20135C014
11209000: system.cpu.l1d.prefetcher: PC:   0X4026BC
11209000: system.cpu.l1d.prefetcher: Spatial Region address:          0
11209000: system.cpu.l1d.prefetcher: Spatial Region physical address:      0X500
11209000: system.cpu.l1d.prefetcher: Spatial Region offset:       0X14
11209000: system.cpu.l1d.prefetcher: PST address added: 0X20135E014
11335000: system.cpu.l1i.prefetcher: PC:   0X4027DB
11335000: system.cpu.l1i.prefetcher: Spatial Region address:        0X4
11335000: system.cpu.l1i.prefetcher: Spatial Region physical address:     0X27C0
11335000: system.cpu.l1i.prefetcher: Spatial Region offset:       0X1F
11335000: system.cpu.l1i.prefetcher: PST address added: 0X2013ED81F
11412000: system.cpu.l1i.prefetcher: PC:   0X402800
11412000: system.cpu.l1i.prefetcher: Spatial Region address:        0X5
11412000: system.cpu.l1i.prefetcher: Spatial Region physical address:     0X2800
11412000: system.cpu.l1i.prefetcher: Spatial Region offset:          0
11412000: system.cpu.l1i.prefetcher: PST address added: 0X201400000
11476000: system.cpu.l1i.prefetcher: PC:   0X402E30
11476000: system.cpu.l1i.prefetcher: Spatial Region address:        0X5
11476000: system.cpu.l1i.prefetcher: Spatial Region physical address:     0X2E00
11476000: system.cpu.l1i.prefetcher: Spatial Region offset:       0X18
11540000: system.cpu.l1i.prefetcher: PC:   0X402E40
11540000: system.cpu.l1i.prefetcher: Spatial Region address:        0X5
11540000: system.cpu.l1i.prefetcher: Spatial Region physical address:     0X2E40
11540000: system.cpu.l1i.prefetcher: Spatial Region offset:       0X19
11604000: system.cpu.l1i.prefetcher: PC:   0X402E80
11604000: system.cpu.l1i.prefetcher: Spatial Region address:        0X5
11604000: system.cpu.l1i.prefetcher: Spatial Region physical address:     0X2E80
11604000: system.cpu.l1i.prefetcher: Spatial Region offset:       0X1A
11613000: system.cpu.l1d.prefetcher: PC:   0X402E49
11613000: system.cpu.l1d.prefetcher: Spatial Region address:      0X180
11613000: system.cpu.l1d.prefetcher: Spatial Region physical address:    0XC0180
11613000: system.cpu.l1d.prefetcher: Spatial Region offset:        0X6
11613000: system.cpu.l1d.prefetcher: PST address added: 0X201724806
11668000: system.cpu.l1i.prefetcher: PC:   0X402EC0
11668000: system.cpu.l1i.prefetcher: Spatial Region address:        0X5
11668000: system.cpu.l1i.prefetcher: Spatial Region physical address:     0X2EC0
11668000: system.cpu.l1i.prefetcher: Spatial Region offset:       0X1B
11736000: system.cpu.l1i.prefetcher: PC:   0X402F00
11736000: system.cpu.l1i.prefetcher: Spatial Region address:        0X5
11736000: system.cpu.l1i.prefetcher: Spatial Region physical address:     0X2F00
11736000: system.cpu.l1i.prefetcher: Spatial Region offset:       0X1C
11737000: system.cpu.l1d.prefetcher: PC:   0X402E8D
11737000: system.cpu.l1d.prefetcher: Spatial Region address:          0
11737000: system.cpu.l1d.prefetcher: Spatial Region physical address:       0X40
11737000: system.cpu.l1d.prefetcher: Spatial Region offset:        0X1
11737000: system.cpu.l1d.prefetcher: PST address added: 0X201746801
11800000: system.cpu.l1i.prefetcher: PC:   0X402F40
11800000: system.cpu.l1i.prefetcher: Spatial Region address:        0X5
11800000: system.cpu.l1i.prefetcher: Spatial Region physical address:     0X2F40
11800000: system.cpu.l1i.prefetcher: Spatial Region offset:       0X1D
11876000: system.cpu.l1d.prefetcher: PC:   0X402E92
11876000: system.cpu.l1d.prefetcher: Spatial Region address:          0
11876000: system.cpu.l1d.prefetcher: Spatial Region physical address:       0XA8
11876000: system.cpu.l1d.prefetcher: Spatial Region offset:        0X2
11877000: system.cpu.l1d.prefetcher: PC:   0X402E96
11877000: system.cpu.l1d.prefetcher: Spatial Region address:          0
11877000: system.cpu.l1d.prefetcher: Spatial Region physical address:       0XA0
11877000: system.cpu.l1d.prefetcher: Spatial Region offset:        0X2
11877000: system.cpu.l1d.prefetcher: PST address added: 0X20174B002
11947000: system.cpu.l1d.prefetcher: PC:   0X402E92
11947000: system.cpu.l1d.prefetcher: Spatial Region address:          0
11947000: system.cpu.l1d.prefetcher: Spatial Region physical address:       0XE0
11947000: system.cpu.l1d.prefetcher: Spatial Region offset:        0X3
11947000: system.cpu.l1d.prefetcher: PST address added: 0X201749003
11948000: system.cpu.l1d.prefetcher: PC:   0X402E96
11948000: system.cpu.l1d.prefetcher: Spatial Region address:          0
11948000: system.cpu.l1d.prefetcher: Spatial Region physical address:       0XD8
11948000: system.cpu.l1d.prefetcher: Spatial Region offset:        0X3
11948000: system.cpu.l1d.prefetcher: PST address added: 0X20174B003
12018000: system.cpu.l1d.prefetcher: PC:   0X402E92
12018000: system.cpu.l1d.prefetcher: Spatial Region address:          0
12018000: system.cpu.l1d.prefetcher: Spatial Region physical address:      0X118
12018000: system.cpu.l1d.prefetcher: Spatial Region offset:        0X4
12018000: system.cpu.l1d.prefetcher: PST address added: 0X201749004
12019000: system.cpu.l1d.prefetcher: PC:   0X402E96
12019000: system.cpu.l1d.prefetcher: Spatial Region address:          0
12019000: system.cpu.l1d.prefetcher: Spatial Region physical address:      0X110
12019000: system.cpu.l1d.prefetcher: Spatial Region offset:        0X4
12019000: system.cpu.l1d.prefetcher: PST address added: 0X20174B004
12089000: system.cpu.l1d.prefetcher: PC:   0X402E92
12089000: system.cpu.l1d.prefetcher: Spatial Region address:          0
12089000: system.cpu.l1d.prefetcher: Spatial Region physical address:      0X150
12089000: system.cpu.l1d.prefetcher: Spatial Region offset:        0X5
12089000: system.cpu.l1d.prefetcher: PST address added: 0X201749005
12090000: system.cpu.l1d.prefetcher: PC:   0X402E96
12090000: system.cpu.l1d.prefetcher: Spatial Region address:          0
12090000: system.cpu.l1d.prefetcher: Spatial Region physical address:      0X148
12090000: system.cpu.l1d.prefetcher: Spatial Region offset:        0X5
12090000: system.cpu.l1d.prefetcher: PST address added: 0X20174B005
12160000: system.cpu.l1d.prefetcher: PC:   0X402E92
12160000: system.cpu.l1d.prefetcher: Spatial Region address:          0
12160000: system.cpu.l1d.prefetcher: Spatial Region physical address:      0X188
12160000: system.cpu.l1d.prefetcher: Spatial Region offset:        0X6
12160000: system.cpu.l1d.prefetcher: PST address added: 0X201749006
12161000: system.cpu.l1d.prefetcher: PC:   0X402E96
12161000: system.cpu.l1d.prefetcher: Spatial Region address:          0
12161000: system.cpu.l1d.prefetcher: Spatial Region physical address:      0X180
12161000: system.cpu.l1d.prefetcher: Spatial Region offset:        0X6
12231000: system.cpu.l1d.prefetcher: PC:   0X402E92
12231000: system.cpu.l1d.prefetcher: Spatial Region address:          0
12231000: system.cpu.l1d.prefetcher: Spatial Region physical address:      0X1C0
12231000: system.cpu.l1d.prefetcher: Spatial Region offset:        0X7
12298000: system.cpu.l1d.prefetcher: PC:   0X402EB4
12298000: system.cpu.l1d.prefetcher: Spatial Region address:      0X180
12298000: system.cpu.l1d.prefetcher: Spatial Region physical address:    0XC0220
12298000: system.cpu.l1d.prefetcher: Spatial Region offset:        0X8
12298000: system.cpu.l1d.prefetcher: PST address added: 0X20175A008
12452000: system.cpu.l1i.prefetcher: PC:   0X402F80
12452000: system.cpu.l1i.prefetcher: Spatial Region address:        0X5
12452000: system.cpu.l1i.prefetcher: Spatial Region physical address:     0X2F80
12452000: system.cpu.l1i.prefetcher: Spatial Region offset:       0X1E
12516000: system.cpu.l1i.prefetcher: PC:   0X4495A0
12516000: system.cpu.l1i.prefetcher: Spatial Region address:       0X92
12516000: system.cpu.l1i.prefetcher: Spatial Region physical address:    0X49580
12516000: system.cpu.l1i.prefetcher: Spatial Region offset:       0X16
12516000: system.cpu.l1i.prefetcher: PST address added: 0X224AD0016
12593000: system.cpu.l1i.prefetcher: PC:   0X4495C0
12593000: system.cpu.l1i.prefetcher: Spatial Region address:       0X92
12593000: system.cpu.l1i.prefetcher: Spatial Region physical address:    0X495C0
12593000: system.cpu.l1i.prefetcher: Spatial Region offset:       0X17
12593000: system.cpu.l1i.prefetcher: PST address added: 0X224AE0017
12600000: system.cpu.l1d.prefetcher: PC:   0X4495A6
12600000: system.cpu.l1d.prefetcher: Spatial Region address:      0X18B
12600000: system.cpu.l1d.prefetcher: Spatial Region physical address:    0XC5CB8
12600000: system.cpu.l1d.prefetcher: Spatial Region offset:       0X12
12600000: system.cpu.l1d.prefetcher: PST address added: 0X224AD3012
12604000: system.cpu.l1d.prefetcher: PC:   0X4495AE
12604000: system.cpu.l1d.prefetcher: Spatial Region address:      0X183
12604000: system.cpu.l1d.prefetcher: Spatial Region physical address:    0XC1F38
12604000: system.cpu.l1d.prefetcher: Spatial Region offset:       0X1C
12604000: system.cpu.l1d.prefetcher: PST address added: 0X224AD701C
12657000: system.cpu.l1i.prefetcher: PC:   0X449600
12657000: system.cpu.l1i.prefetcher: Spatial Region address:       0X92
12657000: system.cpu.l1i.prefetcher: Spatial Region physical address:    0X49600
12657000: system.cpu.l1i.prefetcher: Spatial Region offset:       0X18
12657000: system.cpu.l1i.prefetcher: PST address added: 0X224B00018
12723000: system.cpu.l1i.prefetcher: PC:   0X449640
12723000: system.cpu.l1i.prefetcher: Spatial Region address:       0X92
12723000: system.cpu.l1i.prefetcher: Spatial Region physical address:    0X49640
12723000: system.cpu.l1i.prefetcher: Spatial Region offset:       0X19
12723000: system.cpu.l1i.prefetcher: PST address added: 0X224B20019
12787000: system.cpu.l1i.prefetcher: PC:   0X4718A0
12787000: system.cpu.l1i.prefetcher: Spatial Region address:       0XE3
12787000: system.cpu.l1i.prefetcher: Spatial Region physical address:    0X71880
12787000: system.cpu.l1i.prefetcher: Spatial Region offset:        0X2
12787000: system.cpu.l1i.prefetcher: PST address added: 0X238C50002
12851000: system.cpu.l1i.prefetcher: PC:   0X4718C0
12851000: system.cpu.l1i.prefetcher: Spatial Region address:       0XE3
12851000: system.cpu.l1i.prefetcher: Spatial Region physical address:    0X718C0
12851000: system.cpu.l1i.prefetcher: Spatial Region offset:        0X3
12851000: system.cpu.l1i.prefetcher: PST address added: 0X238C60003
12919000: system.cpu.l1i.prefetcher: PC:   0X471900
12919000: system.cpu.l1i.prefetcher: Spatial Region address:       0XE3
12919000: system.cpu.l1i.prefetcher: Spatial Region physical address:    0X71900
12919000: system.cpu.l1i.prefetcher: Spatial Region offset:        0X4
12919000: system.cpu.l1i.prefetcher: PST address added: 0X238C80004
12989000: system.cpu.l1i.prefetcher: PC:   0X449680
12989000: system.cpu.l1i.prefetcher: Spatial Region address:       0X92
12989000: system.cpu.l1i.prefetcher: Spatial Region physical address:    0X49680
12989000: system.cpu.l1i.prefetcher: Spatial Region offset:       0X1A
12989000: system.cpu.l1i.prefetcher: PST address added: 0X224B4001A
13082000: system.cpu.l1i.prefetcher: PC:   0X4496C0
13082000: system.cpu.l1i.prefetcher: Spatial Region address:       0X92
13082000: system.cpu.l1i.prefetcher: Spatial Region physical address:    0X496C0
13082000: system.cpu.l1i.prefetcher: Spatial Region offset:       0X1B
13082000: system.cpu.l1i.prefetcher: PST address added: 0X224B6001B
13153000: system.cpu.l1i.prefetcher: PC:   0X471940
13153000: system.cpu.l1i.prefetcher: Spatial Region address:       0XE3
13153000: system.cpu.l1i.prefetcher: Spatial Region physical address:    0X71940
13153000: system.cpu.l1i.prefetcher: Spatial Region offset:        0X5
13153000: system.cpu.l1i.prefetcher: PST address added: 0X238CA0005
13253000: system.cpu.l1i.prefetcher: PC:   0X449700
13253000: system.cpu.l1i.prefetcher: Spatial Region address:       0X92
13253000: system.cpu.l1i.prefetcher: Spatial Region physical address:    0X49700
13253000: system.cpu.l1i.prefetcher: Spatial Region offset:       0X1C
13253000: system.cpu.l1i.prefetcher: PST address added: 0X224B8001C
13326000: system.cpu.l1d.prefetcher: PC:   0X402EF0
13326000: system.cpu.l1d.prefetcher: Spatial Region address:      0X188
13326000: system.cpu.l1d.prefetcher: Spatial Region physical address:    0XC4320
13326000: system.cpu.l1d.prefetcher: Spatial Region offset:        0XC
13326000: system.cpu.l1d.prefetcher: PST address added: 0X20177800C
13330000: system.cpu.l1i.prefetcher: PC:   0X402FC0
13330000: system.cpu.l1i.prefetcher: Spatial Region address:        0X5
13330000: system.cpu.l1i.prefetcher: Spatial Region physical address:     0X2FC0
13330000: system.cpu.l1i.prefetcher: Spatial Region offset:       0X1F
13401000: system.cpu.l1i.prefetcher: PC:   0X403000
13401000: system.cpu.l1i.prefetcher: Spatial Region address:        0X6
13401000: system.cpu.l1i.prefetcher: Spatial Region physical address:     0X3000
13401000: system.cpu.l1i.prefetcher: Spatial Region offset:          0
13401000: system.cpu.l1i.prefetcher: PST address added: 0X201800000
13407000: system.cpu.l1d.prefetcher: PC:   0X402F42
13407000: system.cpu.l1d.prefetcher: Spatial Region address:      0X180
13407000: system.cpu.l1d.prefetcher: Spatial Region physical address:    0XC0670
13407000: system.cpu.l1d.prefetcher: Spatial Region offset:       0X19
13407000: system.cpu.l1d.prefetcher: PST address added: 0X2017A1019
13408000: system.cpu.l1d.prefetcher: PC:   0X402F49
13408000: system.cpu.l1d.prefetcher: Spatial Region address:      0X188
13408000: system.cpu.l1d.prefetcher: Spatial Region physical address:    0XC4340
13408000: system.cpu.l1d.prefetcher: Spatial Region offset:        0XD
13408000: system.cpu.l1d.prefetcher: PST address added: 0X2017A480D
13465000: system.cpu.l1i.prefetcher: PC:   0X401060
13465000: system.cpu.l1i.prefetcher: Spatial Region address:        0X2
13465000: system.cpu.l1i.prefetcher: Spatial Region physical address:     0X1040
13465000: system.cpu.l1i.prefetcher: Spatial Region offset:        0X1
13465000: system.cpu.l1i.prefetcher: PST address added: 0X200830001
13470000: system.cpu.l1d.prefetcher: PC:   0X402F50
13470000: system.cpu.l1d.prefetcher: Spatial Region address:      0X188
13470000: system.cpu.l1d.prefetcher: Spatial Region physical address:    0XC4348
13470000: system.cpu.l1d.prefetcher: Spatial Region offset:        0XD
13470000: system.cpu.l1d.prefetcher: PST address added: 0X2017A800D
13556000: system.cpu.l1i.prefetcher: PC:   0X401080
13556000: system.cpu.l1i.prefetcher: Spatial Region address:        0X2
13556000: system.cpu.l1i.prefetcher: Spatial Region physical address:     0X1080
13556000: system.cpu.l1i.prefetcher: Spatial Region offset:        0X2
13620000: system.cpu.l1i.prefetcher: PC:   0X445DB0
13620000: system.cpu.l1i.prefetcher: Spatial Region address:       0X8B
13620000: system.cpu.l1i.prefetcher: Spatial Region physical address:    0X45D80
13620000: system.cpu.l1i.prefetcher: Spatial Region offset:       0X16
13620000: system.cpu.l1i.prefetcher: PST address added: 0X222ED8016
13711000: system.cpu.l1i.prefetcher: PC:   0X445DC0
13711000: system.cpu.l1i.prefetcher: Spatial Region address:       0X8B
13711000: system.cpu.l1i.prefetcher: Spatial Region physical address:    0X45DC0
13711000: system.cpu.l1i.prefetcher: Spatial Region offset:       0X17
13711000: system.cpu.l1i.prefetcher: PST address added: 0X222EE0017
13775000: system.cpu.l1i.prefetcher: PC:   0X445E00
13775000: system.cpu.l1i.prefetcher: Spatial Region address:       0X8B
13775000: system.cpu.l1i.prefetcher: Spatial Region physical address:    0X45E00
13775000: system.cpu.l1i.prefetcher: Spatial Region offset:       0X18
13775000: system.cpu.l1i.prefetcher: PST address added: 0X222F00018
13782000: system.cpu.l1d.prefetcher: PC:   0X445DCB
13782000: system.cpu.l1d.prefetcher: Spatial Region address:      0X178
13782000: system.cpu.l1d.prefetcher: Spatial Region physical address:    0XBC0C0
13782000: system.cpu.l1d.prefetcher: Spatial Region offset:        0X3
13782000: system.cpu.l1d.prefetcher: PST address added: 0X222EE5803
13783000: system.cpu.l1d.prefetcher: PC:   0X445DCB
13783000: system.cpu.l1d.prefetcher: Spatial Region address:      0X178
13783000: system.cpu.l1d.prefetcher: Spatial Region physical address:    0XBC0C8
13783000: system.cpu.l1d.prefetcher: Spatial Region offset:        0X3
13783000: system.cpu.l1d.prefetcher: PST address added: 0X222EE5803
13839000: system.cpu.l1i.prefetcher: PC:   0X445E40
13839000: system.cpu.l1i.prefetcher: Spatial Region address:       0X8B
13839000: system.cpu.l1i.prefetcher: Spatial Region physical address:    0X45E40
13839000: system.cpu.l1i.prefetcher: Spatial Region offset:       0X19
13839000: system.cpu.l1i.prefetcher: PST address added: 0X222F20019
13909000: system.cpu.l1d.prefetcher: PC:   0X445DD3
13909000: system.cpu.l1d.prefetcher: Spatial Region address:      0X18F
13909000: system.cpu.l1d.prefetcher: Spatial Region physical address:    0XC7820
13909000: system.cpu.l1d.prefetcher: Spatial Region offset:          0
13909000: system.cpu.l1d.prefetcher: PST address added: 0X222EE9800
13910000: system.cpu.l1d.prefetcher: PC:   0X445DD3
13910000: system.cpu.l1d.prefetcher: Spatial Region address:      0X18F
13910000: system.cpu.l1d.prefetcher: Spatial Region physical address:    0XC7828
13910000: system.cpu.l1d.prefetcher: Spatial Region offset:          0
13910000: system.cpu.l1d.prefetcher: PST address added: 0X222EE9800
13913000: system.cpu.l1i.prefetcher: PC:   0X445E80
13913000: system.cpu.l1i.prefetcher: Spatial Region address:       0X8B
13913000: system.cpu.l1i.prefetcher: Spatial Region physical address:    0X45E80
13913000: system.cpu.l1i.prefetcher: Spatial Region offset:       0X1A
13913000: system.cpu.l1i.prefetcher: PST address added: 0X222F4001A
14001000: system.cpu.l1d.prefetcher: PC:   0X402F75
14001000: system.cpu.l1d.prefetcher: Spatial Region address:      0X18F
14001000: system.cpu.l1d.prefetcher: Spatial Region physical address:    0XC7888
14001000: system.cpu.l1d.prefetcher: Spatial Region offset:        0X2
14001000: system.cpu.l1i.prefetcher: PC:   0X403040
14001000: system.cpu.l1i.prefetcher: Spatial Region address:        0X6
14001000: system.cpu.l1i.prefetcher: Spatial Region physical address:     0X3040
14001000: system.cpu.l1i.prefetcher: Spatial Region offset:        0X1
14004000: system.cpu.l1d.prefetcher: PC:   0X402F7E
14004000: system.cpu.l1d.prefetcher: Spatial Region address:      0X18F
14004000: system.cpu.l1d.prefetcher: Spatial Region physical address:    0XC7880
14004000: system.cpu.l1d.prefetcher: Spatial Region offset:        0X2
14004000: system.cpu.l1d.prefetcher: PST address added: 0X2017BF002
14087000: system.cpu.l1i.prefetcher: PC:   0X403080
14087000: system.cpu.l1i.prefetcher: Spatial Region address:        0X6
14087000: system.cpu.l1i.prefetcher: Spatial Region physical address:     0X3080
14087000: system.cpu.l1i.prefetcher: Spatial Region offset:        0X2
14091000: system.cpu.l1d.prefetcher: PC:   0X402FB4
14091000: system.cpu.l1d.prefetcher: Spatial Region address:      0X188
14091000: system.cpu.l1d.prefetcher: Spatial Region physical address:    0XC4720
14091000: system.cpu.l1d.prefetcher: Spatial Region offset:       0X1C
14091000: system.cpu.l1d.prefetcher: PST address added: 0X2017DA01C
14100000: system.cpu.l1d.prefetcher: PC:   0X402FDF
14100000: system.cpu.l1d.prefetcher: Spatial Region address:      0X182
14100000: system.cpu.l1d.prefetcher: Spatial Region physical address:    0XC12B8
14100000: system.cpu.l1d.prefetcher: Spatial Region offset:        0XA
14100000: system.cpu.l1d.prefetcher: PST address added: 0X2017EF80A
14184000: system.cpu.l1d.prefetcher: PC:   0X403005
14184000: system.cpu.l1d.prefetcher: Spatial Region address:      0X182
14184000: system.cpu.l1d.prefetcher: Spatial Region physical address:    0XC1290
14184000: system.cpu.l1d.prefetcher: Spatial Region offset:        0XA
14184000: system.cpu.l1d.prefetcher: PST address added: 0X20180280A
14188000: system.cpu.l1i.prefetcher: PC:   0X4030C0
14188000: system.cpu.l1i.prefetcher: Spatial Region address:        0X6
14188000: system.cpu.l1i.prefetcher: Spatial Region physical address:     0X30C0
14188000: system.cpu.l1i.prefetcher: Spatial Region offset:        0X3
14256000: system.cpu.l1i.prefetcher: PC:   0X402840
14256000: system.cpu.l1i.prefetcher: Spatial Region address:        0X5
14256000: system.cpu.l1i.prefetcher: Spatial Region physical address:     0X2840
14256000: system.cpu.l1i.prefetcher: Spatial Region offset:        0X1
14262000: system.cpu.l1d.prefetcher: PC:   0X4027E6
14262000: system.cpu.l1d.prefetcher: Spatial Region address:      0X18F
14262000: system.cpu.l1d.prefetcher: Spatial Region physical address:    0XC78C8
14262000: system.cpu.l1d.prefetcher: Spatial Region offset:        0X3
14262000: system.cpu.l1d.prefetcher: PST address added: 0X2013F3003
14320000: system.cpu.l1i.prefetcher: PC:   0X402A5E
14320000: system.cpu.l1i.prefetcher: Spatial Region address:        0X5
14320000: system.cpu.l1i.prefetcher: Spatial Region physical address:     0X2A40
14320000: system.cpu.l1i.prefetcher: Spatial Region offset:        0X9
14384000: system.cpu.l1i.prefetcher: PC:   0X402A80
14384000: system.cpu.l1i.prefetcher: Spatial Region address:        0X5
14384000: system.cpu.l1i.prefetcher: Spatial Region physical address:     0X2A80
14384000: system.cpu.l1i.prefetcher: Spatial Region offset:        0XA
14461000: system.cpu.l1i.prefetcher: PC:   0X44E680
14461000: system.cpu.l1i.prefetcher: Spatial Region address:       0X9C
14461000: system.cpu.l1i.prefetcher: Spatial Region physical address:    0X4E680
14461000: system.cpu.l1i.prefetcher: Spatial Region offset:       0X1A
14461000: system.cpu.l1i.prefetcher: PST address added: 0X22734001A
14552000: system.cpu.l1i.prefetcher: PC:   0X44E6C0
14552000: system.cpu.l1i.prefetcher: Spatial Region address:       0X9C
14552000: system.cpu.l1i.prefetcher: Spatial Region physical address:    0X4E6C0
14552000: system.cpu.l1i.prefetcher: Spatial Region offset:       0X1B
14552000: system.cpu.l1i.prefetcher: PST address added: 0X22736001B
14568000: system.cpu.l1d.prefetcher: PC:   0X44E694
14568000: system.cpu.l1d.prefetcher: Spatial Region address:      0X18B
14568000: system.cpu.l1d.prefetcher: Spatial Region physical address:    0XC5B38
14568000: system.cpu.l1d.prefetcher: Spatial Region offset:        0XC
14568000: system.cpu.l1d.prefetcher: PST address added: 0X22734A00C
14616000: system.cpu.l1i.prefetcher: PC:   0X471650
14616000: system.cpu.l1i.prefetcher: Spatial Region address:       0XE2
14616000: system.cpu.l1i.prefetcher: Spatial Region physical address:    0X71640
14616000: system.cpu.l1i.prefetcher: Spatial Region offset:       0X19
14616000: system.cpu.l1i.prefetcher: PST address added: 0X238B28019
14680000: system.cpu.l1i.prefetcher: PC:   0X471680
14680000: system.cpu.l1i.prefetcher: Spatial Region address:       0XE2
14680000: system.cpu.l1i.prefetcher: Spatial Region physical address:    0X71680
14680000: system.cpu.l1i.prefetcher: Spatial Region offset:       0X1A
14680000: system.cpu.l1i.prefetcher: PST address added: 0X238B4001A
14748000: system.cpu.l1i.prefetcher: PC:   0X4716C0
14748000: system.cpu.l1i.prefetcher: Spatial Region address:       0XE2
14748000: system.cpu.l1i.prefetcher: Spatial Region physical address:    0X716C0
14748000: system.cpu.l1i.prefetcher: Spatial Region offset:       0X1B
14748000: system.cpu.l1i.prefetcher: PST address added: 0X238B6001B
14816000: system.cpu.l1i.prefetcher: PC:   0X44E700
14816000: system.cpu.l1i.prefetcher: Spatial Region address:       0X9C
14816000: system.cpu.l1i.prefetcher: Spatial Region physical address:    0X4E700
14816000: system.cpu.l1i.prefetcher: Spatial Region offset:       0X1C
14816000: system.cpu.l1i.prefetcher: PST address added: 0X22738001C
14820000: system.cpu.l1d.prefetcher: PC:   0X44E6AE
14820000: system.cpu.l1d.prefetcher: Spatial Region address:      0X18B
14820000: system.cpu.l1d.prefetcher: Spatial Region physical address:    0XC5C02
14820000: system.cpu.l1d.prefetcher: Spatial Region offset:       0X10
14880000: system.cpu.l1i.prefetcher: PC:   0X44E740
14880000: system.cpu.l1i.prefetcher: Spatial Region address:       0X9C
14880000: system.cpu.l1i.prefetcher: Spatial Region physical address:    0X4E740
14880000: system.cpu.l1i.prefetcher: Spatial Region offset:       0X1D
14880000: system.cpu.l1i.prefetcher: PST address added: 0X2273A001D
14957000: system.cpu.l1i.prefetcher: PC:   0X44E780
14957000: system.cpu.l1i.prefetcher: Spatial Region address:       0X9C
14957000: system.cpu.l1i.prefetcher: Spatial Region physical address:    0X4E780
14957000: system.cpu.l1i.prefetcher: Spatial Region offset:       0X1E
14957000: system.cpu.l1i.prefetcher: PST address added: 0X2273C001E
15137000: system.cpu.l1i.prefetcher: PC:   0X402AC0
15137000: system.cpu.l1i.prefetcher: Spatial Region address:        0X5
15137000: system.cpu.l1i.prefetcher: Spatial Region physical address:     0X2AC0
15137000: system.cpu.l1i.prefetcher: Spatial Region offset:        0XB
15205000: system.cpu.l1i.prefetcher: PC:   0X402880
15205000: system.cpu.l1i.prefetcher: Spatial Region address:        0X5
15205000: system.cpu.l1i.prefetcher: Spatial Region physical address:     0X2880
15205000: system.cpu.l1i.prefetcher: Spatial Region offset:        0X2
15208000: system.cpu.l1d.prefetcher: PC:   0X402810
15208000: system.cpu.l1d.prefetcher: Spatial Region address:      0X17D
15208000: system.cpu.l1d.prefetcher: Spatial Region physical address:    0XBEF80
15208000: system.cpu.l1d.prefetcher: Spatial Region offset:       0X1E
15208000: system.cpu.l1d.prefetcher: PST address added: 0X20140801E
15277000: system.cpu.l1i.prefetcher: PC:   0X4028C0
15277000: system.cpu.l1i.prefetcher: Spatial Region address:        0X5
15277000: system.cpu.l1i.prefetcher: Spatial Region physical address:     0X28C0
15277000: system.cpu.l1i.prefetcher: Spatial Region offset:        0X3
15376000: system.cpu.l1i.prefetcher: PC:   0X402900
15376000: system.cpu.l1i.prefetcher: Spatial Region address:        0X5
15376000: system.cpu.l1i.prefetcher: Spatial Region physical address:     0X2900
15376000: system.cpu.l1i.prefetcher: Spatial Region offset:        0X4
15442000: system.cpu.l1i.prefetcher: PC:   0X44E7C0
15442000: system.cpu.l1i.prefetcher: Spatial Region address:       0X9C
15442000: system.cpu.l1i.prefetcher: Spatial Region physical address:    0X4E7C0
15442000: system.cpu.l1i.prefetcher: Spatial Region offset:       0X1F
15442000: system.cpu.l1i.prefetcher: PST address added: 0X2273E001F
15508000: system.cpu.l1i.prefetcher: PC:   0X44E800
15508000: system.cpu.l1i.prefetcher: Spatial Region address:       0X9D
15508000: system.cpu.l1i.prefetcher: Spatial Region physical address:    0X4E800
15508000: system.cpu.l1i.prefetcher: Spatial Region offset:          0
15508000: system.cpu.l1i.prefetcher: PST address added: 0X227400000
15513000: system.cpu.l1d.prefetcher: PC:   0X44E7F0
15513000: system.cpu.l1d.prefetcher: Spatial Region address:      0X181
15513000: system.cpu.l1d.prefetcher: Spatial Region physical address:    0XC0A68
15513000: system.cpu.l1d.prefetcher: Spatial Region offset:        0X9
15513000: system.cpu.l1d.prefetcher: PST address added: 0X2273F8009
15572000: system.cpu.l1i.prefetcher: PC:   0X44E840
15572000: system.cpu.l1i.prefetcher: Spatial Region address:       0X9D
15572000: system.cpu.l1i.prefetcher: Spatial Region physical address:    0X4E840
15572000: system.cpu.l1i.prefetcher: Spatial Region offset:        0X1
15957000: system.cpu.l1i.prefetcher: PC:   0X44CC40
[...]
434802000: system.cpu.l1i.prefetcher: PC:   0X410300
434802000: system.cpu.l1i.prefetcher: Spatial Region address:       0X20
434802000: system.cpu.l1i.prefetcher: Spatial Region physical address:    0X10300
434802000: system.cpu.l1i.prefetcher: Spatial Region offset:        0XC
434876000: system.cpu.l1i.prefetcher: PC:   0X403200
434876000: system.cpu.l1i.prefetcher: Spatial Region address:        0X6
434876000: system.cpu.l1i.prefetcher: Spatial Region physical address:     0X3200
434876000: system.cpu.l1i.prefetcher: Spatial Region offset:        0X8
434876000: system.cpu.l1i.prefetcher: PST address added: 0X201900008
434953000: system.cpu.l1i.prefetcher: PC:   0X4016E0
434953000: system.cpu.l1i.prefetcher: Spatial Region address:        0X2
434953000: system.cpu.l1i.prefetcher: Spatial Region physical address:     0X16C0
434953000: system.cpu.l1i.prefetcher: Spatial Region offset:       0X1B
434953000: system.cpu.l1i.prefetcher: PST address added: 0X200B7001B
435035000: system.cpu.l1d.prefetcher: PC:   0X4016E4
435035000: system.cpu.l1d.prefetcher: Spatial Region address:      0X183
435035000: system.cpu.l1d.prefetcher: Spatial Region physical address:    0XC1FF8
435035000: system.cpu.l1d.prefetcher: Spatial Region offset:       0X1F
435035000: system.cpu.l1d.prefetcher: PST address added: 0X200B7201F
435225000: system.cpu.l1i.prefetcher: PC:   0X492440
435225000: system.cpu.l1i.prefetcher: Spatial Region address:      0X124
435225000: system.cpu.l1i.prefetcher: Spatial Region physical address:    0X92440
435225000: system.cpu.l1i.prefetcher: Spatial Region offset:       0X11
435225000: system.cpu.l1i.prefetcher: PST address added: 0X249220011
435302000: system.cpu.l1i.prefetcher: PC:   0X492480
435302000: system.cpu.l1i.prefetcher: Spatial Region address:      0X124
435302000: system.cpu.l1i.prefetcher: Spatial Region physical address:    0X92480
435302000: system.cpu.l1i.prefetcher: Spatial Region offset:       0X12
435302000: system.cpu.l1i.prefetcher: PST address added: 0X249240012
435366000: system.cpu.l1i.prefetcher: PC:   0X492310
435366000: system.cpu.l1i.prefetcher: Spatial Region address:      0X124
435366000: system.cpu.l1i.prefetcher: Spatial Region physical address:    0X92300
435366000: system.cpu.l1i.prefetcher: Spatial Region offset:        0XC
435366000: system.cpu.l1i.prefetcher: PST address added: 0X24918800C
435430000: system.cpu.l1i.prefetcher: PC:   0X492340
435430000: system.cpu.l1i.prefetcher: Spatial Region address:      0X124
435430000: system.cpu.l1i.prefetcher: Spatial Region physical address:    0X92340
435430000: system.cpu.l1i.prefetcher: Spatial Region offset:        0XD
435430000: system.cpu.l1i.prefetcher: PST address added: 0X2491A000D
435496000: system.cpu.l1i.prefetcher: PC:   0X492380
435496000: system.cpu.l1i.prefetcher: Spatial Region address:      0X124
435496000: system.cpu.l1i.prefetcher: Spatial Region physical address:    0X92380
435496000: system.cpu.l1i.prefetcher: Spatial Region offset:        0XE
435496000: system.cpu.l1i.prefetcher: PST address added: 0X2491C000E
435564000: system.cpu.l1i.prefetcher: PC:   0X4923C0
435564000: system.cpu.l1i.prefetcher: Spatial Region address:      0X124
435564000: system.cpu.l1i.prefetcher: Spatial Region physical address:    0X923C0
435564000: system.cpu.l1i.prefetcher: Spatial Region offset:        0XF
435564000: system.cpu.l1i.prefetcher: PST address added: 0X2491E000F
435633000: system.cpu.l1i.prefetcher: PC:   0X492400
435633000: system.cpu.l1i.prefetcher: Spatial Region address:      0X124
435633000: system.cpu.l1i.prefetcher: Spatial Region physical address:    0X92400
435633000: system.cpu.l1i.prefetcher: Spatial Region offset:       0X10
435633000: system.cpu.l1i.prefetcher: PST address added: 0X249200010
435725000: system.cpu.l1i.prefetcher: PC:   0X403240
435725000: system.cpu.l1i.prefetcher: Spatial Region address:        0X6
435725000: system.cpu.l1i.prefetcher: Spatial Region physical address:     0X3240
435725000: system.cpu.l1i.prefetcher: Spatial Region offset:        0X9
435725000: system.cpu.l1i.prefetcher: PST address added: 0X201920009
435789000: system.cpu.l1i.prefetcher: PC:   0X4948E0
435789000: system.cpu.l1i.prefetcher: Spatial Region address:      0X129
435789000: system.cpu.l1i.prefetcher: Spatial Region physical address:    0X948C0
435789000: system.cpu.l1i.prefetcher: Spatial Region offset:        0X3
435789000: system.cpu.l1i.prefetcher: PST address added: 0X24A470003
435866000: system.cpu.l1i.prefetcher: PC:   0X494900
435866000: system.cpu.l1i.prefetcher: Spatial Region address:      0X129
435866000: system.cpu.l1i.prefetcher: Spatial Region physical address:    0X94900
435866000: system.cpu.l1i.prefetcher: Spatial Region offset:        0X4
435866000: system.cpu.l1i.prefetcher: PST address added: 0X24A480004
435934000: system.cpu.l1i.prefetcher: PC:   0X410340
435934000: system.cpu.l1i.prefetcher: Spatial Region address:       0X20
435934000: system.cpu.l1i.prefetcher: Spatial Region physical address:    0X10340
435934000: system.cpu.l1i.prefetcher: Spatial Region offset:        0XD
436025000: system.cpu.l1i.prefetcher: PC:   0X410380
436025000: system.cpu.l1i.prefetcher: Spatial Region address:       0X20
436025000: system.cpu.l1i.prefetcher: Spatial Region physical address:    0X10380
436025000: system.cpu.l1i.prefetcher: Spatial Region offset:        0XE
436089000: system.cpu.l1i.prefetcher: PC:   0X4103C0
436089000: system.cpu.l1i.prefetcher: Spatial Region address:       0X20
436089000: system.cpu.l1i.prefetcher: Spatial Region physical address:    0X103C0
436089000: system.cpu.l1i.prefetcher: Spatial Region offset:        0XF
436409000: system.cpu.l1i.prefetcher: PC:   0X410400
436409000: system.cpu.l1i.prefetcher: Spatial Region address:       0X20
436409000: system.cpu.l1i.prefetcher: Spatial Region physical address:    0X10400
436409000: system.cpu.l1i.prefetcher: Spatial Region offset:       0X10
436504000: system.cpu.l1i.prefetcher: PC:   0X410440
436504000: system.cpu.l1i.prefetcher: Spatial Region address:       0X20
436504000: system.cpu.l1i.prefetcher: Spatial Region physical address:    0X10440
436504000: system.cpu.l1i.prefetcher: Spatial Region offset:       0X11
436504000: system.cpu.l1i.prefetcher: PST address added: 0X208220011
436524000: system.cpu.l1d.prefetcher: PC:   0X4103F8
436524000: system.cpu.l1d.prefetcher: Spatial Region address:      0X182
436524000: system.cpu.l1d.prefetcher: Spatial Region physical address:    0XC1228
436524000: system.cpu.l1d.prefetcher: Spatial Region offset:        0X8
436524000: system.cpu.l1d.prefetcher: PST address added: 0X2081FC008
436602000: system.cpu.l1i.prefetcher: PC:   0X418BF0
436602000: system.cpu.l1i.prefetcher: Spatial Region address:       0X31
436602000: system.cpu.l1i.prefetcher: Spatial Region physical address:    0X18BC0
436602000: system.cpu.l1i.prefetcher: Spatial Region offset:        0XF
436602000: system.cpu.l1i.prefetcher: PST address added: 0X20C5F800F
436679000: system.cpu.l1i.prefetcher: PC:   0X418C00
436679000: system.cpu.l1i.prefetcher: Spatial Region address:       0X31
436679000: system.cpu.l1i.prefetcher: Spatial Region physical address:    0X18C00
436679000: system.cpu.l1i.prefetcher: Spatial Region offset:       0X10
436679000: system.cpu.l1i.prefetcher: PST address added: 0X20C600010
436743000: system.cpu.l1i.prefetcher: PC:   0X418C40
436743000: system.cpu.l1i.prefetcher: Spatial Region address:       0X31
436743000: system.cpu.l1i.prefetcher: Spatial Region physical address:    0X18C40
436743000: system.cpu.l1i.prefetcher: Spatial Region offset:       0X11
436743000: system.cpu.l1i.prefetcher: PST address added: 0X20C620011
436807000: system.cpu.l1i.prefetcher: PC:   0X4188F0
436807000: system.cpu.l1i.prefetcher: Spatial Region address:       0X31
436807000: system.cpu.l1i.prefetcher: Spatial Region physical address:    0X188C0
436807000: system.cpu.l1i.prefetcher: Spatial Region offset:        0X3
436807000: system.cpu.l1i.prefetcher: PST address added: 0X20C478003
436871000: system.cpu.l1i.prefetcher: PC:   0X418900
436871000: system.cpu.l1i.prefetcher: Spatial Region address:       0X31
436871000: system.cpu.l1i.prefetcher: Spatial Region physical address:    0X18900
436871000: system.cpu.l1i.prefetcher: Spatial Region offset:        0X4
436871000: system.cpu.l1i.prefetcher: PST address added: 0X20C480004
436935000: system.cpu.l1i.prefetcher: PC:   0X418940
436935000: system.cpu.l1i.prefetcher: Spatial Region address:       0X31
436935000: system.cpu.l1i.prefetcher: Spatial Region physical address:    0X18940
436935000: system.cpu.l1i.prefetcher: Spatial Region offset:        0X5
436935000: system.cpu.l1i.prefetcher: PST address added: 0X20C4A0005
436999000: system.cpu.l1i.prefetcher: PC:   0X418B20
436999000: system.cpu.l1i.prefetcher: Spatial Region address:       0X31
436999000: system.cpu.l1i.prefetcher: Spatial Region physical address:    0X18B00
436999000: system.cpu.l1i.prefetcher: Spatial Region offset:        0XC
436999000: system.cpu.l1i.prefetcher: PST address added: 0X20C59000C
437063000: system.cpu.l1i.prefetcher: PC:   0X418B40
437063000: system.cpu.l1i.prefetcher: Spatial Region address:       0X31
437063000: system.cpu.l1i.prefetcher: Spatial Region physical address:    0X18B40
437063000: system.cpu.l1i.prefetcher: Spatial Region offset:        0XD
437063000: system.cpu.l1i.prefetcher: PST address added: 0X20C5A000D
437131000: system.cpu.l1i.prefetcher: PC:   0X418980
437131000: system.cpu.l1i.prefetcher: Spatial Region address:       0X31
437131000: system.cpu.l1i.prefetcher: Spatial Region physical address:    0X18980
437131000: system.cpu.l1i.prefetcher: Spatial Region offset:        0X6
437131000: system.cpu.l1i.prefetcher: PST address added: 0X20C4C0006
437136000: system.cpu.l1d.prefetcher: PC:   0X41893E
437136000: system.cpu.l1d.prefetcher: Spatial Region address:      0X183
437136000: system.cpu.l1d.prefetcher: Spatial Region physical address:    0XC1C58
437136000: system.cpu.l1d.prefetcher: Spatial Region offset:       0X11
437195000: system.cpu.l1i.prefetcher: PC:   0X4189C0
437195000: system.cpu.l1i.prefetcher: Spatial Region address:       0X31
437195000: system.cpu.l1i.prefetcher: Spatial Region physical address:    0X189C0
437195000: system.cpu.l1i.prefetcher: Spatial Region offset:        0X7
437229000: system.cpu.l1d.prefetcher: PC:   0X4189A0
437229000: system.cpu.l1d.prefetcher: Spatial Region address:      0X17E
437229000: system.cpu.l1d.prefetcher: Spatial Region physical address:    0XBF1E0
437229000: system.cpu.l1d.prefetcher: Spatial Region offset:        0X7
437259000: system.cpu.l1i.prefetcher: PC:   0X418A44
437259000: system.cpu.l1i.prefetcher: Spatial Region address:       0X31
437259000: system.cpu.l1i.prefetcher: Spatial Region physical address:    0X18A40
437259000: system.cpu.l1i.prefetcher: Spatial Region offset:        0X9
437323000: system.cpu.l1i.prefetcher: PC:   0X418A80
437323000: system.cpu.l1i.prefetcher: Spatial Region address:       0X31
437323000: system.cpu.l1i.prefetcher: Spatial Region physical address:    0X18A80
437323000: system.cpu.l1i.prefetcher: Spatial Region offset:        0XA
437331000: system.cpu.l1d.prefetcher: PC:   0X418A4F
437331000: system.cpu.l1d.prefetcher: Spatial Region address:      0X17E
437331000: system.cpu.l1d.prefetcher: Spatial Region physical address:    0XBF140
437331000: system.cpu.l1d.prefetcher: Spatial Region offset:        0X5
437389000: system.cpu.l1i.prefetcher: PC:   0X418AC0
437389000: system.cpu.l1i.prefetcher: Spatial Region address:       0X31
437389000: system.cpu.l1i.prefetcher: Spatial Region physical address:    0X18AC0
437389000: system.cpu.l1i.prefetcher: Spatial Region offset:        0XB
437393000: system.cpu.l1d.prefetcher: PC:   0X418A8D
437393000: system.cpu.l1d.prefetcher: Spatial Region address:      0X17E
437393000: system.cpu.l1d.prefetcher: Spatial Region physical address:    0XBF200
437393000: system.cpu.l1d.prefetcher: Spatial Region offset:        0X8
437466000: system.cpu.l1i.prefetcher: PC:   0X418A00
437466000: system.cpu.l1i.prefetcher: Spatial Region address:       0X31
437466000: system.cpu.l1i.prefetcher: Spatial Region physical address:    0X18A00
437466000: system.cpu.l1i.prefetcher: Spatial Region offset:        0X8
437538000: system.cpu.l1d.prefetcher: PC:   0X418A3B
437538000: system.cpu.l1d.prefetcher: Spatial Region address:      0X17E
437538000: system.cpu.l1d.prefetcher: Spatial Region physical address:    0XBF1A8
437538000: system.cpu.l1d.prefetcher: Spatial Region offset:        0X6
437604000: system.cpu.l1d.prefetcher: PC:   0X418A4F
437604000: system.cpu.l1d.prefetcher: Spatial Region address:      0X17E
437604000: system.cpu.l1d.prefetcher: Spatial Region physical address:    0XBF320
437604000: system.cpu.l1d.prefetcher: Spatial Region offset:        0XC
437667000: system.cpu.l1d.prefetcher: PC:   0X418A8D
437667000: system.cpu.l1d.prefetcher: Spatial Region address:      0X17E
437667000: system.cpu.l1d.prefetcher: Spatial Region physical address:    0XBF3E0
437667000: system.cpu.l1d.prefetcher: Spatial Region offset:        0XF
437730000: system.cpu.l1d.prefetcher: PC:   0X418A9B
437730000: system.cpu.l1d.prefetcher: Spatial Region address:      0X17E
437730000: system.cpu.l1d.prefetcher: Spatial Region physical address:    0XBF340
437730000: system.cpu.l1d.prefetcher: Spatial Region offset:        0XD
437731000: system.cpu.l1d.prefetcher: PC:   0X418A9F
437731000: system.cpu.l1d.prefetcher: Spatial Region address:      0X17E
437731000: system.cpu.l1d.prefetcher: Spatial Region physical address:    0XBF348
437731000: system.cpu.l1d.prefetcher: Spatial Region offset:        0XD
437821000: system.cpu.l1d.prefetcher: PC:   0X418A3B
437821000: system.cpu.l1d.prefetcher: Spatial Region address:      0X17E
437821000: system.cpu.l1d.prefetcher: Spatial Region physical address:    0XBF388
437821000: system.cpu.l1d.prefetcher: Spatial Region offset:        0XE
437887000: system.cpu.l1d.prefetcher: PC:   0X418A4F
437887000: system.cpu.l1d.prefetcher: Spatial Region address:      0X17E
437887000: system.cpu.l1d.prefetcher: Spatial Region physical address:    0XBF500
437887000: system.cpu.l1d.prefetcher: Spatial Region offset:       0X14
437950000: system.cpu.l1d.prefetcher: PC:   0X418A8D
437950000: system.cpu.l1d.prefetcher: Spatial Region address:      0X17E
437950000: system.cpu.l1d.prefetcher: Spatial Region physical address:    0XBF5C0
437950000: system.cpu.l1d.prefetcher: Spatial Region offset:       0X17
438044000: system.cpu.l1d.prefetcher: PC:   0X418A3B
438044000: system.cpu.l1d.prefetcher: Spatial Region address:      0X17E
438044000: system.cpu.l1d.prefetcher: Spatial Region physical address:    0XBF568
438044000: system.cpu.l1d.prefetcher: Spatial Region offset:       0X15
438138000: system.cpu.l1i.prefetcher: PC:   0X418B80
438138000: system.cpu.l1i.prefetcher: Spatial Region address:       0X31
438138000: system.cpu.l1i.prefetcher: Spatial Region physical address:    0X18B80
438138000: system.cpu.l1i.prefetcher: Spatial Region offset:        0XE
438242000: system.cpu.l1i.prefetcher: PC:   0X418C80
438242000: system.cpu.l1i.prefetcher: Spatial Region address:       0X31
438242000: system.cpu.l1i.prefetcher: Spatial Region physical address:    0X18C80
438242000: system.cpu.l1i.prefetcher: Spatial Region offset:       0X12
438242000: system.cpu.l1i.prefetcher: PST address added: 0X20C640012
438306000: system.cpu.l1i.prefetcher: PC:   0X418E68
438306000: system.cpu.l1i.prefetcher: Spatial Region address:       0X31
438306000: system.cpu.l1i.prefetcher: Spatial Region physical address:    0X18E40
438306000: system.cpu.l1i.prefetcher: Spatial Region offset:       0X19
438306000: system.cpu.l1i.prefetcher: PST address added: 0X20C734019
438383000: system.cpu.l1i.prefetcher: PC:   0X418E80
438383000: system.cpu.l1i.prefetcher: Spatial Region address:       0X31
438383000: system.cpu.l1i.prefetcher: Spatial Region physical address:    0X18E80
438383000: system.cpu.l1i.prefetcher: Spatial Region offset:       0X1A
438383000: system.cpu.l1i.prefetcher: PST address added: 0X20C74001A
438447000: system.cpu.l1i.prefetcher: PC:   0X418EC0
438447000: system.cpu.l1i.prefetcher: Spatial Region address:       0X31
438447000: system.cpu.l1i.prefetcher: Spatial Region physical address:    0X18EC0
438447000: system.cpu.l1i.prefetcher: Spatial Region offset:       0X1B
438447000: system.cpu.l1i.prefetcher: PST address added: 0X20C76001B
438517000: system.cpu.l1i.prefetcher: PC:   0X418CC0
438517000: system.cpu.l1i.prefetcher: Spatial Region address:       0X31
438517000: system.cpu.l1i.prefetcher: Spatial Region physical address:    0X18CC0
438517000: system.cpu.l1i.prefetcher: Spatial Region offset:       0X13
438517000: system.cpu.l1i.prefetcher: PST address added: 0X20C660013
438585000: system.cpu.l1i.prefetcher: PC:   0X418D00
438585000: system.cpu.l1i.prefetcher: Spatial Region address:       0X31
438585000: system.cpu.l1i.prefetcher: Spatial Region physical address:    0X18D00
438585000: system.cpu.l1i.prefetcher: Spatial Region offset:       0X14
438585000: system.cpu.l1i.prefetcher: PST address added: 0X20C680014
438656000: system.cpu.l1i.prefetcher: PC:   0X418D40
438656000: system.cpu.l1i.prefetcher: Spatial Region address:       0X31
438656000: system.cpu.l1i.prefetcher: Spatial Region physical address:    0X18D40
438656000: system.cpu.l1i.prefetcher: Spatial Region offset:       0X15
438656000: system.cpu.l1i.prefetcher: PST address added: 0X20C6A0015
438738000: system.cpu.l1d.prefetcher: PC:   0X418CC8
438738000: system.cpu.l1d.prefetcher: Spatial Region address:      0X17E
438738000: system.cpu.l1d.prefetcher: Spatial Region physical address:    0XBF588
438738000: system.cpu.l1d.prefetcher: Spatial Region offset:       0X16
438811000: system.cpu.l1i.prefetcher: PC:   0X418DC0
438811000: system.cpu.l1i.prefetcher: Spatial Region address:       0X31
438811000: system.cpu.l1i.prefetcher: Spatial Region physical address:    0X18DC0
438811000: system.cpu.l1i.prefetcher: Spatial Region offset:       0X17
438811000: system.cpu.l1i.prefetcher: PST address added: 0X20C6E0017
438875000: system.cpu.l1i.prefetcher: PC:   0X418E00
438875000: system.cpu.l1i.prefetcher: Spatial Region address:       0X31
438875000: system.cpu.l1i.prefetcher: Spatial Region physical address:    0X18E00
438875000: system.cpu.l1i.prefetcher: Spatial Region offset:       0X18
438875000: system.cpu.l1i.prefetcher: PST address added: 0X20C700018
438970000: system.cpu.l1i.prefetcher: PC:   0X418F00
438970000: system.cpu.l1i.prefetcher: Spatial Region address:       0X31
438970000: system.cpu.l1i.prefetcher: Spatial Region physical address:    0X18F00
438970000: system.cpu.l1i.prefetcher: Spatial Region offset:       0X1C
438970000: system.cpu.l1i.prefetcher: PST address added: 0X20C78001C
439050000: system.cpu.l1i.prefetcher: PC:   0X448190
439050000: system.cpu.l1i.prefetcher: Spatial Region address:       0X90
439050000: system.cpu.l1i.prefetcher: Spatial Region physical address:    0X48180
439050000: system.cpu.l1i.prefetcher: Spatial Region offset:        0X6
439050000: system.cpu.l1i.prefetcher: PST address added: 0X2240C8006
439127000: system.cpu.l1i.prefetcher: PC:   0X4481C0
439127000: system.cpu.l1i.prefetcher: Spatial Region address:       0X90
439127000: system.cpu.l1i.prefetcher: Spatial Region physical address:    0X481C0
439127000: system.cpu.l1i.prefetcher: Spatial Region offset:        0X7
439127000: system.cpu.l1i.prefetcher: PST address added: 0X2240E0007
439195000: system.cpu.l1i.prefetcher: PC:   0X448200
439195000: system.cpu.l1i.prefetcher: Spatial Region address:       0X90
439195000: system.cpu.l1i.prefetcher: Spatial Region physical address:    0X48200
439195000: system.cpu.l1i.prefetcher: Spatial Region offset:        0X8
439195000: system.cpu.l1i.prefetcher: PST address added: 0X224100008
Exit Eventexiting with last active thread context
Dump stats at the end of the ROI!
