gem5 Simulator System.  http://gem5.org
gem5 is copyrighted software; use the --copyright option for details.

gem5 version 20.1.0.2
gem5 compiled Dec  8 2021 05:50:25
gem5 started Dec  8 2021 05:51:51
gem5 executing on ARCH-750, pid 996333
command line: /data/home/ycc32/450_project/gem5/build/X86/gem5.opt --debug-flags=HWPrefetch -re --outdir=/data/home/ycc32/450_project/gem5/results/X86/run_micro/MI/Minor4/Slow/DDR3_2133_8x8/1GHz gem5-config/run_micro.py Minor4 Slow microbenchmark/MI/bench.X86 DDR3_2133_8x8 --clock=1GHz

1GHz CPU speed and DRAM = DDR3_2133_8x8
system.py: init L2 cache with size 1MB
Global frequency set at 1000000000000 ticks per second
   1000: system.cpu.l1i.prefetcher: INSERTENTRY(): spatio_region:        0X3, pc:   0x401be0, physical addr:     0x1bc0
   1000: system.cpu.l1i.prefetcher: Created FT entry with:   0x401be0
   1000: system.cpu.l1i.prefetcher: CONGRATS: SUCCESS in inserting new FT entry found!!
  79000: system.cpu.l1i.prefetcher: INSERTENTRY(): spatio_region:        0X3, pc:   0x401c00, physical addr:     0x1c00
  79000: system.cpu.l1i.prefetcher: Created FT entry with:   0x401c00
  79000: system.cpu.l1i.prefetcher: CONGRATS: SUCCESS in inserting new FT entry found!!
  82000: system.cpu.l1d.prefetcher: INSERTENTRY(): spatio_region:      0X18B, pc:   0x401be9, physical addr:    0xc5e50
  82000: system.cpu.l1d.prefetcher: Created FT entry with:   0x401be9
  82000: system.cpu.l1d.prefetcher: CONGRATS: SUCCESS in inserting new FT entry found!!
 143000: system.cpu.l1i.prefetcher: INSERTENTRY(): spatio_region:        0X3, pc:   0x401c40, physical addr:     0x1c40
 143000: system.cpu.l1i.prefetcher: Created FT entry with:   0x401c40
 143000: system.cpu.l1i.prefetcher: CONGRATS: SUCCESS in inserting new FT entry found!!
 167000: system.cpu.l1d.prefetcher: INSERTENTRY(): spatio_region:      0X18B, pc:   0x401c08, physical addr:    0xc5e38
 167000: system.cpu.l1d.prefetcher: Created FT entry with:   0x401c08
 167000: system.cpu.l1d.prefetcher: CONGRATS: SUCCESS in inserting new FT entry found!!
 207000: system.cpu.l1i.prefetcher: INSERTENTRY(): spatio_region:        0X4, pc:   0x402460, physical addr:     0x2440
 207000: system.cpu.l1i.prefetcher: Created FT entry with:   0x402460
 207000: system.cpu.l1i.prefetcher: CONGRATS: SUCCESS in inserting new FT entry found!!
 284000: system.cpu.l1i.prefetcher: INSERTENTRY(): spatio_region:        0X4, pc:   0x402480, physical addr:     0x2480
 284000: system.cpu.l1i.prefetcher: Created FT entry with:   0x402480
 284000: system.cpu.l1i.prefetcher: CONGRATS: SUCCESS in inserting new FT entry found!!
 348000: system.cpu.l1i.prefetcher: INSERTENTRY(): spatio_region:        0X4, pc:   0x4024c0, physical addr:     0x24c0
 348000: system.cpu.l1i.prefetcher: Created FT entry with:   0x4024c0
 348000: system.cpu.l1i.prefetcher: CONGRATS: SUCCESS in inserting new FT entry found!!
 352000: system.cpu.l1d.prefetcher: INSERTENTRY(): spatio_region:      0X18B, pc:   0x40247e, physical addr:    0xc5d40
 352000: system.cpu.l1d.prefetcher: Created FT entry with:   0x40247e
 352000: system.cpu.l1d.prefetcher: CONGRATS: SUCCESS in inserting new FT entry found!!
 355000: system.cpu.l1d.prefetcher: INSERTENTRY(): spatio_region:      0X18B, pc:   0x40248a, physical addr:    0xc5d48
 355000: system.cpu.l1d.prefetcher: Created FT entry with:   0x40248a
 355000: system.cpu.l1d.prefetcher: CONGRATS: SUCCESS in inserting new FT entry found!!
 414000: system.cpu.l1d.prefetcher: INSERTENTRY(): spatio_region:      0X18B, pc:   0x40248f, physical addr:    0xc5d3c
 414000: system.cpu.l1d.prefetcher: Created FT entry with:   0x40248f
 414000: system.cpu.l1d.prefetcher: CONGRATS: SUCCESS in inserting new FT entry found!!
 416000: system.cpu.l1i.prefetcher: INSERTENTRY(): spatio_region:        0X4, pc:   0x402500, physical addr:     0x2500
 416000: system.cpu.l1i.prefetcher: Created FT entry with:   0x402500
 416000: system.cpu.l1i.prefetcher: CONGRATS: SUCCESS in inserting new FT entry found!!
 420000: system.cpu.l1d.prefetcher: INSERTENTRY(): spatio_region:      0X180, pc:   0x4024a1, physical addr:    0xc06c8
 420000: system.cpu.l1d.prefetcher: Created FT entry with:   0x4024a1
 420000: system.cpu.l1d.prefetcher: CONGRATS: SUCCESS in inserting new FT entry found!!
 487000: system.cpu.l1i.prefetcher: INSERTENTRY(): spatio_region:        0X3, pc:   0x401c80, physical addr:     0x1c80
 487000: system.cpu.l1i.prefetcher: Created FT entry with:   0x401c80
 487000: system.cpu.l1i.prefetcher: CONGRATS: SUCCESS in inserting new FT entry found!!
 585000: system.cpu.l1i.prefetcher: INSERTENTRY(): spatio_region:        0X4, pc:   0x402540, physical addr:     0x2540
 585000: system.cpu.l1i.prefetcher: Created FT entry with:   0x402540
 585000: system.cpu.l1i.prefetcher: CONGRATS: SUCCESS in inserting new FT entry found!!
 589000: system.cpu.l1d.prefetcher: INSERTENTRY(): spatio_region:      0X183, pc:   0x4024c3, physical addr:    0xc1ce8
 589000: system.cpu.l1d.prefetcher: Created FT entry with:   0x4024c3
 589000: system.cpu.l1d.prefetcher: CONGRATS: SUCCESS in inserting new FT entry found!!
 592000: system.cpu.l1d.prefetcher: INSERTENTRY(): spatio_region:      0X17D, pc:   0x4024ca, physical addr:    0xbea70
 592000: system.cpu.l1d.prefetcher: Created FT entry with:   0x4024ca
 592000: system.cpu.l1d.prefetcher: CONGRATS: SUCCESS in inserting new FT entry found!!
 649000: system.cpu.l1i.prefetcher: INSERTENTRY(): spatio_region:        0X4, pc:   0x402580, physical addr:     0x2580
 649000: system.cpu.l1i.prefetcher: Created FT entry with:   0x402580
 649000: system.cpu.l1i.prefetcher: CONGRATS: SUCCESS in inserting new FT entry found!!
 713000: system.cpu.l1i.prefetcher: INSERTENTRY(): spatio_region:       0X98, pc:   0x44c760, physical addr:    0x4c740
 713000: system.cpu.l1i.prefetcher: Created FT entry with:   0x44c760
 713000: system.cpu.l1i.prefetcher: CONGRATS: SUCCESS in inserting new FT entry found!!
 790000: system.cpu.l1i.prefetcher: INSERTENTRY(): spatio_region:       0X98, pc:   0x44c780, physical addr:    0x4c780
 790000: system.cpu.l1i.prefetcher: Created FT entry with:   0x44c780
 790000: system.cpu.l1i.prefetcher: CONGRATS: SUCCESS in inserting new FT entry found!!
 797000: system.cpu.l1d.prefetcher: INSERTENTRY(): spatio_region:      0X188, pc:   0x44c767, physical addr:    0xc47e0
 797000: system.cpu.l1d.prefetcher: Created FT entry with:   0x44c767
 797000: system.cpu.l1d.prefetcher: CONGRATS: SUCCESS in inserting new FT entry found!!
 803000: system.cpu.l1d.prefetcher: INSERTENTRY(): spatio_region:      0X183, pc:   0x44c779, physical addr:    0xc1d00
 803000: system.cpu.l1d.prefetcher: Created FT entry with:   0x44c779
 803000: system.cpu.l1d.prefetcher: CONGRATS: SUCCESS in inserting new FT entry found!!
 854000: system.cpu.l1i.prefetcher: INSERTENTRY(): spatio_region:       0X98, pc:   0x44c7c0, physical addr:    0x4c7c0
 854000: system.cpu.l1i.prefetcher: Created FT entry with:   0x44c7c0
 854000: system.cpu.l1i.prefetcher: CONGRATS: SUCCESS in inserting new FT entry found!!
 868000: system.cpu.l1d.prefetcher: INSERTENTRY(): spatio_region:      0X189, pc:   0x44c788, physical addr:    0xc4890
 868000: system.cpu.l1d.prefetcher: Created FT entry with:   0x44c788
 868000: system.cpu.l1d.prefetcher: CONGRATS: SUCCESS in inserting new FT entry found!!
 918000: system.cpu.l1i.prefetcher: INSERTENTRY(): spatio_region:       0X99, pc:   0x44c800, physical addr:    0x4c800
 918000: system.cpu.l1i.prefetcher: Created FT entry with:   0x44c800
 918000: system.cpu.l1i.prefetcher: CONGRATS: SUCCESS in inserting new FT entry found!!
 933000: system.cpu.l1d.prefetcher: INSERTENTRY(): spatio_region:      0X180, pc:   0x44c796, physical addr:    0xc0118
 933000: system.cpu.l1d.prefetcher: Created FT entry with:   0x44c796
 933000: system.cpu.l1d.prefetcher: CONGRATS: SUCCESS in inserting new FT entry found!!
 982000: system.cpu.l1i.prefetcher: INSERTENTRY(): spatio_region:       0X99, pc:   0x44c840, physical addr:    0x4c840
 982000: system.cpu.l1i.prefetcher: Created FT entry with:   0x44c840
 982000: system.cpu.l1i.prefetcher: CONGRATS: SUCCESS in inserting new FT entry found!!
 997000: system.cpu.l1d.prefetcher: INSERTENTRY(): spatio_region:      0X189, pc:   0x44c7a4, physical addr:    0xc4848
 997000: system.cpu.l1d.prefetcher: Created FT entry with:   0x44c7a4
 997000: system.cpu.l1d.prefetcher: CONGRATS: SUCCESS in inserting new FT entry found!!
1060000: system.cpu.l1d.prefetcher: INSERTENTRY(): spatio_region:      0X189, pc:   0x44c7ab, physical addr:    0xc4810
1060000: system.cpu.l1d.prefetcher: Created FT entry with:   0x44c7ab
1060000: system.cpu.l1d.prefetcher: CONGRATS: SUCCESS in inserting new FT entry found!!
1128000: system.cpu.l1i.prefetcher: INSERTENTRY(): spatio_region:       0X99, pc:   0x44c880, physical addr:    0x4c880
1128000: system.cpu.l1i.prefetcher: Created FT entry with:   0x44c880
1128000: system.cpu.l1i.prefetcher: CONGRATS: SUCCESS in inserting new FT entry found!!
1130000: system.cpu.l1d.prefetcher: INSERTENTRY(): spatio_region:      0X18B, pc:   0x44c7be, physical addr:    0xc5cf8
1130000: system.cpu.l1d.prefetcher: Created FT entry with:   0x44c7be
1130000: system.cpu.l1d.prefetcher: CONGRATS: SUCCESS in inserting new FT entry found!!
1134000: system.cpu.l1d.prefetcher: INSERTENTRY(): spatio_region:      0X18B, pc:   0x44c7c6, physical addr:    0xc5cd0
1134000: system.cpu.l1d.prefetcher: Created FT entry with:   0x44c7c6
1134000: system.cpu.l1d.prefetcher: CONGRATS: SUCCESS in inserting new FT entry found!!
1195000: system.cpu.l1d.prefetcher: INSERTENTRY(): spatio_region:      0X17D, pc:   0x44c7cb, physical addr:    0xbeaa0
1195000: system.cpu.l1d.prefetcher: Created FT entry with:   0x44c7cb
1195000: system.cpu.l1d.prefetcher: CONGRATS: SUCCESS in inserting new FT entry found!!
1285000: system.cpu.l1i.prefetcher: INSERTENTRY(): spatio_region:       0X99, pc:   0x44c8c0, physical addr:    0x4c8c0
1285000: system.cpu.l1i.prefetcher: Created FT entry with:   0x44c8c0
1285000: system.cpu.l1i.prefetcher: CONGRATS: SUCCESS in inserting new FT entry found!!
1297000: system.cpu.l1d.prefetcher: INSERTENTRY(): spatio_region:      0X131, pc:   0x44c842, physical addr:    0x98fd8
1297000: system.cpu.l1d.prefetcher: Created FT entry with:   0x44c842
1297000: system.cpu.l1d.prefetcher: CONGRATS: SUCCESS in inserting new FT entry found!!
1375000: system.cpu.l1i.prefetcher: INSERTENTRY(): spatio_region:       0X99, pc:   0x44c900, physical addr:    0x4c900
1375000: system.cpu.l1i.prefetcher: Created FT entry with:   0x44c900
1375000: system.cpu.l1i.prefetcher: CONGRATS: SUCCESS in inserting new FT entry found!!
1439000: system.cpu.l1i.prefetcher: INSERTENTRY(): spatio_region:       0X99, pc:   0x44c950, physical addr:    0x4c940
1439000: system.cpu.l1i.prefetcher: Created FT entry with:   0x44c950
1439000: system.cpu.l1i.prefetcher: CONGRATS: SUCCESS in inserting new FT entry found!!
1503000: system.cpu.l1i.prefetcher: INSERTENTRY(): spatio_region:       0X99, pc:   0x44c980, physical addr:    0x4c980
1503000: system.cpu.l1i.prefetcher: Created FT entry with:   0x44c980
1503000: system.cpu.l1i.prefetcher: CONGRATS: SUCCESS in inserting new FT entry found!!
1512000: system.cpu.l1d.prefetcher: INSERTENTRY(): spatio_region:      0X18B, pc:   0x44c962, physical addr:    0xc5e80
1512000: system.cpu.l1d.prefetcher: Created FT entry with:   0x44c962
1512000: system.cpu.l1d.prefetcher: CONGRATS: SUCCESS in inserting new FT entry found!!
1567000: system.cpu.l1i.prefetcher: INSERTENTRY(): spatio_region:       0X99, pc:   0x44c9c0, physical addr:    0x4c9c0
1567000: system.cpu.l1i.prefetcher: Created FT entry with:   0x44c9c0
1567000: system.cpu.l1i.prefetcher: CONGRATS: SUCCESS in inserting new FT entry found!!
1640000: system.cpu.l1d.prefetcher: INSERTENTRY(): spatio_region:      0X131, pc:   0x44c842, physical addr:    0x98f94
1640000: system.cpu.l1d.prefetcher: Created FT entry with:   0x44c842
1640000: system.cpu.l1d.prefetcher: CONGRATS: SUCCESS in inserting new FT entry found!!
1706000: system.cpu.l1i.prefetcher: INSERTENTRY(): spatio_region:       0X99, pc:   0x44ca20, physical addr:    0x4ca00
1706000: system.cpu.l1i.prefetcher: Created FT entry with:   0x44ca20
1706000: system.cpu.l1i.prefetcher: CONGRATS: SUCCESS in inserting new FT entry found!!
1770000: system.cpu.l1i.prefetcher: INSERTENTRY(): spatio_region:       0X99, pc:   0x44ca40, physical addr:    0x4ca40
1770000: system.cpu.l1i.prefetcher: Created FT entry with:   0x44ca40
1770000: system.cpu.l1i.prefetcher: CONGRATS: SUCCESS in inserting new FT entry found!!
1843000: system.cpu.l1d.prefetcher: INSERTENTRY(): spatio_region:      0X131, pc:   0x44c842, physical addr:    0x98f6c
1843000: system.cpu.l1d.prefetcher: Created FT entry with:   0x44c842
1843000: system.cpu.l1d.prefetcher: CONGRATS: SUCCESS in inserting new FT entry found!!
1909000: system.cpu.l1i.prefetcher: INSERTENTRY(): spatio_region:       0X99, pc:   0x44caf0, physical addr:    0x4cac0
1909000: system.cpu.l1i.prefetcher: Created FT entry with:   0x44caf0
1909000: system.cpu.l1i.prefetcher: CONGRATS: SUCCESS in inserting new FT entry found!!
1973000: system.cpu.l1i.prefetcher: INSERTENTRY(): spatio_region:       0X99, pc:   0x44cb00, physical addr:    0x4cb00
1973000: system.cpu.l1i.prefetcher: Created FT entry with:   0x44cb00
1973000: system.cpu.l1i.prefetcher: CONGRATS: SUCCESS in inserting new FT entry found!!
2037000: system.cpu.l1i.prefetcher: INSERTENTRY(): spatio_region:       0X99, pc:   0x44cb40, physical addr:    0x4cb40
2037000: system.cpu.l1i.prefetcher: Created FT entry with:   0x44cb40
2037000: system.cpu.l1i.prefetcher: CONGRATS: SUCCESS in inserting new FT entry found!!
2123000: system.cpu.l1i.prefetcher: INSERTENTRY(): spatio_region:       0X99, pc:   0x44ca80, physical addr:    0x4ca80
2123000: system.cpu.l1i.prefetcher: Created FT entry with:   0x44ca80
2123000: system.cpu.l1i.prefetcher: CONGRATS: SUCCESS in inserting new FT entry found!!
2217000: system.cpu.l1i.prefetcher: INSERTENTRY(): spatio_region:       0X99, pc:   0x44cb80, physical addr:    0x4cb80
2217000: system.cpu.l1i.prefetcher: Created FT entry with:   0x44cb80
2217000: system.cpu.l1i.prefetcher: CONGRATS: SUCCESS in inserting new FT entry found!!
2222000: system.cpu.l1d.prefetcher: INSERTENTRY(): spatio_region:      0X18B, pc:   0x44cb44, physical addr:    0xc5ec0
2222000: system.cpu.l1d.prefetcher: Created FT entry with:   0x44cb44
2222000: system.cpu.l1d.prefetcher: CONGRATS: SUCCESS in inserting new FT entry found!!
2281000: system.cpu.l1i.prefetcher: INSERTENTRY(): spatio_region:       0X99, pc:   0x44cbc0, physical addr:    0x4cbc0
2281000: system.cpu.l1i.prefetcher: Created FT entry with:   0x44cbc0
2281000: system.cpu.l1i.prefetcher: CONGRATS: SUCCESS in inserting new FT entry found!!
2466000: system.cpu.l1d.prefetcher: INSERTENTRY(): spatio_region:      0X18B, pc:   0x44c860, physical addr:    0xc5f00
2466000: system.cpu.l1d.prefetcher: Created FT entry with:   0x44c860
2466000: system.cpu.l1d.prefetcher: CONGRATS: SUCCESS in inserting new FT entry found!!
2659000: system.cpu.l1d.prefetcher: INSERTENTRY(): spatio_region:      0X18B, pc:   0x44ca93, physical addr:    0xc5f40
2659000: system.cpu.l1d.prefetcher: Created FT entry with:   0x44ca93
2659000: system.cpu.l1d.prefetcher: CONGRATS: SUCCESS in inserting new FT entry found!!
2856000: system.cpu.l1d.prefetcher: INSERTENTRY(): spatio_region:      0X18B, pc:   0x44c860, physical addr:    0xc5f80
2856000: system.cpu.l1d.prefetcher: Created FT entry with:   0x44c860
2856000: system.cpu.l1d.prefetcher: CONGRATS: SUCCESS in inserting new FT entry found!!
2981000: system.cpu.l1i.prefetcher: INSERTENTRY(): spatio_region:       0X99, pc:   0x44cc00, physical addr:    0x4cc00
2981000: system.cpu.l1i.prefetcher: Created FT entry with:   0x44cc00
2981000: system.cpu.l1i.prefetcher: CONGRATS: SUCCESS in inserting new FT entry found!!
3190000: system.cpu.l1i.prefetcher: INSERTENTRY(): spatio_region:        0X4, pc:   0x4025c0, physical addr:     0x25c0
3190000: system.cpu.l1i.prefetcher: Created FT entry with:   0x4025c0
3190000: system.cpu.l1i.prefetcher: CONGRATS: SUCCESS in inserting new FT entry found!!
3254000: system.cpu.l1i.prefetcher: INSERTENTRY(): spatio_region:       0X9B, pc:   0x44d8c0, physical addr:    0x4d8c0
3254000: system.cpu.l1i.prefetcher: Created FT entry with:   0x44d8c0
3254000: system.cpu.l1i.prefetcher: CONGRATS: SUCCESS in inserting new FT entry found!!
3318000: system.cpu.l1i.prefetcher: INSERTENTRY(): spatio_region:       0X9B, pc:   0x44d900, physical addr:    0x4d900
3318000: system.cpu.l1i.prefetcher: Created FT entry with:   0x44d900
3318000: system.cpu.l1i.prefetcher: CONGRATS: SUCCESS in inserting new FT entry found!!
3396000: system.cpu.l1i.prefetcher: INSERTENTRY(): spatio_region:       0X98, pc:   0x44c160, physical addr:    0x4c140
3396000: system.cpu.l1i.prefetcher: Created FT entry with:   0x44c160
3396000: system.cpu.l1i.prefetcher: CONGRATS: SUCCESS in inserting new FT entry found!!
3460000: system.cpu.l1i.prefetcher: INSERTENTRY(): spatio_region:       0X98, pc:   0x44c180, physical addr:    0x4c180
3460000: system.cpu.l1i.prefetcher: Created FT entry with:   0x44c180
3460000: system.cpu.l1i.prefetcher: CONGRATS: SUCCESS in inserting new FT entry found!!
3524000: system.cpu.l1i.prefetcher: INSERTENTRY(): spatio_region:       0X98, pc:   0x44c1c0, physical addr:    0x4c1c0
3524000: system.cpu.l1i.prefetcher: Created FT entry with:   0x44c1c0
3524000: system.cpu.l1i.prefetcher: CONGRATS: SUCCESS in inserting new FT entry found!!
3588000: system.cpu.l1i.prefetcher: INSERTENTRY(): spatio_region:       0X98, pc:   0x44c2aa, physical addr:    0x4c280
3588000: system.cpu.l1i.prefetcher: Created FT entry with:   0x44c2aa
3588000: system.cpu.l1i.prefetcher: CONGRATS: SUCCESS in inserting new FT entry found!!
3652000: system.cpu.l1i.prefetcher: INSERTENTRY(): spatio_region:       0X98, pc:   0x44c2c0, physical addr:    0x4c2c0
3652000: system.cpu.l1i.prefetcher: Created FT entry with:   0x44c2c0
3652000: system.cpu.l1i.prefetcher: CONGRATS: SUCCESS in inserting new FT entry found!!
3746000: system.cpu.l1d.prefetcher: INSERTENTRY(): spatio_region:      0X183, pc:   0x40254f, physical addr:    0xc1d8c
3746000: system.cpu.l1d.prefetcher: Created FT entry with:   0x40254f
3746000: system.cpu.l1d.prefetcher: CONGRATS: SUCCESS in inserting new FT entry found!!
3746000: system.cpu.l1i.prefetcher: INSERTENTRY(): spatio_region:        0X4, pc:   0x402600, physical addr:     0x2600
3746000: system.cpu.l1i.prefetcher: Created FT entry with:   0x402600
3746000: system.cpu.l1i.prefetcher: CONGRATS: SUCCESS in inserting new FT entry found!!
3810000: system.cpu.l1i.prefetcher: INSERTENTRY(): spatio_region:        0X4, pc:   0x4026cd, physical addr:     0x26c0
3810000: system.cpu.l1i.prefetcher: Created FT entry with:   0x4026cd
3810000: system.cpu.l1i.prefetcher: CONGRATS: SUCCESS in inserting new FT entry found!!
3874000: system.cpu.l1i.prefetcher: INSERTENTRY(): spatio_region:        0X4, pc:   0x402700, physical addr:     0x2700
3874000: system.cpu.l1i.prefetcher: Created FT entry with:   0x402700
3874000: system.cpu.l1i.prefetcher: CONGRATS: SUCCESS in inserting new FT entry found!!
3938000: system.cpu.l1i.prefetcher: INSERTENTRY(): spatio_region:        0X5, pc:   0x402c23, physical addr:     0x2c00
3938000: system.cpu.l1i.prefetcher: Created FT entry with:   0x402c23
3938000: system.cpu.l1i.prefetcher: CONGRATS: SUCCESS in inserting new FT entry found!!
4002000: system.cpu.l1i.prefetcher: INSERTENTRY(): spatio_region:        0X5, pc:   0x402c40, physical addr:     0x2c40
4002000: system.cpu.l1i.prefetcher: Created FT entry with:   0x402c40
4002000: system.cpu.l1i.prefetcher: CONGRATS: SUCCESS in inserting new FT entry found!!
4080000: system.cpu.l1i.prefetcher: INSERTENTRY(): spatio_region:        0X4, pc:   0x402640, physical addr:     0x2640
4080000: system.cpu.l1i.prefetcher: Created FT entry with:   0x402640
4080000: system.cpu.l1i.prefetcher: CONGRATS: SUCCESS in inserting new FT entry found!!
4144000: system.cpu.l1i.prefetcher: INSERTENTRY(): spatio_region:        0X4, pc:   0x4020e0, physical addr:     0x20c0
4144000: system.cpu.l1i.prefetcher: Created FT entry with:   0x4020e0
4144000: system.cpu.l1i.prefetcher: CONGRATS: SUCCESS in inserting new FT entry found!!
4208000: system.cpu.l1i.prefetcher: INSERTENTRY(): spatio_region:        0X4, pc:   0x402100, physical addr:     0x2100
4208000: system.cpu.l1i.prefetcher: Created FT entry with:   0x402100
4208000: system.cpu.l1i.prefetcher: CONGRATS: SUCCESS in inserting new FT entry found!!
4272000: system.cpu.l1i.prefetcher: INSERTENTRY(): spatio_region:        0X4, pc:   0x402145, physical addr:     0x2140
4272000: system.cpu.l1i.prefetcher: Created FT entry with:   0x402145
4272000: system.cpu.l1i.prefetcher: CONGRATS: SUCCESS in inserting new FT entry found!!
4336000: system.cpu.l1i.prefetcher: INSERTENTRY(): spatio_region:        0X4, pc:   0x402180, physical addr:     0x2180
4336000: system.cpu.l1i.prefetcher: Created FT entry with:   0x402180
4336000: system.cpu.l1i.prefetcher: CONGRATS: SUCCESS in inserting new FT entry found!!
4417000: system.cpu.l1i.prefetcher: INSERTENTRY(): spatio_region:        0X4, pc:   0x4021c0, physical addr:     0x21c0
4417000: system.cpu.l1i.prefetcher: Created FT entry with:   0x4021c0
4417000: system.cpu.l1i.prefetcher: CONGRATS: SUCCESS in inserting new FT entry found!!
4485000: system.cpu.l1i.prefetcher: INSERTENTRY(): spatio_region:        0X4, pc:   0x402200, physical addr:     0x2200
4485000: system.cpu.l1i.prefetcher: Created FT entry with:   0x402200
4485000: system.cpu.l1i.prefetcher: CONGRATS: SUCCESS in inserting new FT entry found!!
4549000: system.cpu.l1i.prefetcher: INSERTENTRY(): spatio_region:        0X4, pc:   0x4022a4, physical addr:     0x2280
4549000: system.cpu.l1i.prefetcher: Created FT entry with:   0x4022a4
4549000: system.cpu.l1i.prefetcher: CONGRATS: SUCCESS in inserting new FT entry found!!
4613000: system.cpu.l1i.prefetcher: INSERTENTRY(): spatio_region:        0X4, pc:   0x4022c0, physical addr:     0x22c0
4613000: system.cpu.l1i.prefetcher: Created FT entry with:   0x4022c0
4613000: system.cpu.l1i.prefetcher: CONGRATS: SUCCESS in inserting new FT entry found!!
4716000: system.cpu.l1i.prefetcher: INSERTENTRY(): spatio_region:        0X4, pc:   0x402680, physical addr:     0x2680
4716000: system.cpu.l1i.prefetcher: Created FT entry with:   0x402680
4716000: system.cpu.l1i.prefetcher: CONGRATS: SUCCESS in inserting new FT entry found!!
4780000: system.cpu.l1i.prefetcher: INSERTENTRY(): spatio_region:       0X98, pc:   0x44c6f0, physical addr:    0x4c6c0
4780000: system.cpu.l1i.prefetcher: Created FT entry with:   0x44c6f0
4780000: system.cpu.l1i.prefetcher: CONGRATS: SUCCESS in inserting new FT entry found!!
4844000: system.cpu.l1i.prefetcher: INSERTENTRY(): spatio_region:       0X98, pc:   0x44c700, physical addr:    0x4c700
4844000: system.cpu.l1i.prefetcher: Created FT entry with:   0x44c700
4844000: system.cpu.l1i.prefetcher: CONGRATS: SUCCESS in inserting new FT entry found!!
4915000: system.cpu.l1d.prefetcher: INSERTENTRY(): spatio_region:      0X17C, pc:   0x44c70c, physical addr:    0xbe7a8
4915000: system.cpu.l1d.prefetcher: Created FT entry with:   0x44c70c
4915000: system.cpu.l1d.prefetcher: CONGRATS: SUCCESS in inserting new FT entry found!!
4978000: system.cpu.l1d.prefetcher: INSERTENTRY(): spatio_region:      0X17C, pc:   0x44c710, physical addr:    0xbe7c0
4978000: system.cpu.l1d.prefetcher: Created FT entry with:   0x44c710
4978000: system.cpu.l1d.prefetcher: CONGRATS: SUCCESS in inserting new FT entry found!!
5109000: system.cpu.l1d.prefetcher: INSERTENTRY(): spatio_region:      0X17C, pc:   0x44c70c, physical addr:    0xbe620
5109000: system.cpu.l1d.prefetcher: Created FT entry with:   0x44c70c
5109000: system.cpu.l1d.prefetcher: CONGRATS: SUCCESS in inserting new FT entry found!!
5200000: system.cpu.l1d.prefetcher: INSERTENTRY(): spatio_region:      0X17C, pc:   0x44c72c, physical addr:    0xbe640
5200000: system.cpu.l1d.prefetcher: Created FT entry with:   0x44c72c
5200000: system.cpu.l1d.prefetcher: CONGRATS: SUCCESS in inserting new FT entry found!!
5288000: system.cpu.l1d.prefetcher: INSERTENTRY(): spatio_region:      0X183, pc:   0x402605, physical addr:    0xc1dc0
5288000: system.cpu.l1d.prefetcher: Created FT entry with:   0x402605
5288000: system.cpu.l1d.prefetcher: CONGRATS: SUCCESS in inserting new FT entry found!!
5306000: system.cpu.l1d.prefetcher: INSERTENTRY(): spatio_region:      0X17D, pc:   0x44c70c, physical addr:    0xbe888
5306000: system.cpu.l1d.prefetcher: Created FT entry with:   0x44c70c
5306000: system.cpu.l1d.prefetcher: CONGRATS: SUCCESS in inserting new FT entry found!!
5383000: system.cpu.l1d.prefetcher: INSERTENTRY(): spatio_region:      0X18B, pc:   0x44c758, physical addr:    0xc5d80
5383000: system.cpu.l1d.prefetcher: Created FT entry with:   0x44c758
5383000: system.cpu.l1d.prefetcher: CONGRATS: SUCCESS in inserting new FT entry found!!
5440000: system.cpu.l1d.prefetcher: INSERTENTRY(): spatio_region:      0X17C, pc:   0x44c70c, physical addr:    0xbe4d0
5440000: system.cpu.l1d.prefetcher: Created FT entry with:   0x44c70c
5440000: system.cpu.l1d.prefetcher: CONGRATS: SUCCESS in inserting new FT entry found!!
5589000: system.cpu.l1d.prefetcher: INSERTENTRY(): spatio_region:      0X17C, pc:   0x44c70c, physical addr:    0xbe770
5589000: system.cpu.l1d.prefetcher: Created FT entry with:   0x44c70c
5589000: system.cpu.l1d.prefetcher: CONGRATS: SUCCESS in inserting new FT entry found!!
5709000: system.cpu.l1i.prefetcher: INSERTENTRY(): spatio_region:        0X4, pc:   0x402740, physical addr:     0x2740
5709000: system.cpu.l1i.prefetcher: Created FT entry with:   0x402740
5709000: system.cpu.l1i.prefetcher: CONGRATS: SUCCESS in inserting new FT entry found!!
5853000: system.cpu.l1d.prefetcher: INSERTENTRY(): spatio_region:          0, pc:   0x4026a1, physical addr:      0x2e8
5853000: system.cpu.l1d.prefetcher: Created FT entry with:   0x4026a1
5853000: system.cpu.l1d.prefetcher: CONGRATS: SUCCESS in inserting new FT entry found!!
5949000: system.cpu.l1i.prefetcher: INSERTENTRY(): spatio_region:        0X4, pc:   0x402780, physical addr:     0x2780
5949000: system.cpu.l1i.prefetcher: Created FT entry with:   0x402780
5949000: system.cpu.l1i.prefetcher: CONGRATS: SUCCESS in inserting new FT entry found!!
6024000: system.cpu.l1i.prefetcher: INSERTENTRY(): spatio_region:       0X43, pc:   0x421cd0, physical addr:    0x21cc0
6024000: system.cpu.l1i.prefetcher: Created FT entry with:   0x421cd0
6024000: system.cpu.l1i.prefetcher: CONGRATS: SUCCESS in inserting new FT entry found!!
6115000: system.cpu.l1i.prefetcher: INSERTENTRY(): spatio_region:       0X43, pc:   0x421d00, physical addr:    0x21d00
6115000: system.cpu.l1i.prefetcher: Created FT entry with:   0x421d00
6115000: system.cpu.l1i.prefetcher: CONGRATS: SUCCESS in inserting new FT entry found!!
6179000: system.cpu.l1i.prefetcher: INSERTENTRY(): spatio_region:       0X43, pc:   0x421d40, physical addr:    0x21d40
6179000: system.cpu.l1i.prefetcher: Created FT entry with:   0x421d40
6179000: system.cpu.l1i.prefetcher: CONGRATS: SUCCESS in inserting new FT entry found!!
6252000: system.cpu.l1d.prefetcher: INSERTENTRY(): spatio_region:      0X17E, pc:   0x4026a8, physical addr:    0xbf0d0
6252000: system.cpu.l1d.prefetcher: Created FT entry with:   0x4026a8
6252000: system.cpu.l1d.prefetcher: CONGRATS: SUCCESS in inserting new FT entry found!!
6266000: system.cpu.l1d.prefetcher: Updated AGT entry with:          0
6358000: system.cpu.l1i.prefetcher: INSERTENTRY(): spatio_region:       0X43, pc:   0x421e40, physical addr:    0x21e40
6358000: system.cpu.l1i.prefetcher: Created FT entry with:   0x421e40
6358000: system.cpu.l1i.prefetcher: CONGRATS: SUCCESS in inserting new FT entry found!!
6449000: system.cpu.l1i.prefetcher: INSERTENTRY(): spatio_region:       0X43, pc:   0x421e80, physical addr:    0x21e80
6449000: system.cpu.l1i.prefetcher: Created FT entry with:   0x421e80
6449000: system.cpu.l1i.prefetcher: CONGRATS: SUCCESS in inserting new FT entry found!!
6542000: system.cpu.l1i.prefetcher: INSERTENTRY(): spatio_region:      0X109, pc:   0x484dd0, physical addr:    0x84dc0
6542000: system.cpu.l1i.prefetcher: Created FT entry with:   0x484dd0
6542000: system.cpu.l1i.prefetcher: CONGRATS: SUCCESS in inserting new FT entry found!!
6633000: system.cpu.l1i.prefetcher: INSERTENTRY(): spatio_region:      0X109, pc:   0x484e00, physical addr:    0x84e00
6633000: system.cpu.l1i.prefetcher: Created FT entry with:   0x484e00
6633000: system.cpu.l1i.prefetcher: CONGRATS: SUCCESS in inserting new FT entry found!!
6726000: system.cpu.l1i.prefetcher: INSERTENTRY(): spatio_region:       0X43, pc:   0x421de0, physical addr:    0x21dc0
6726000: system.cpu.l1i.prefetcher: Created FT entry with:   0x421de0
6726000: system.cpu.l1i.prefetcher: CONGRATS: SUCCESS in inserting new FT entry found!!
6790000: system.cpu.l1i.prefetcher: INSERTENTRY(): spatio_region:       0X43, pc:   0x421e00, physical addr:    0x21e00
6790000: system.cpu.l1i.prefetcher: Created FT entry with:   0x421e00
6790000: system.cpu.l1i.prefetcher: CONGRATS: SUCCESS in inserting new FT entry found!!
6863000: system.cpu.l1d.prefetcher: INSERTENTRY(): spatio_region:      0X17E, pc:   0x4026a8, physical addr:    0xbf0b8
6863000: system.cpu.l1d.prefetcher: Created FT entry with:   0x4026a8
6863000: system.cpu.l1d.prefetcher: CONGRATS: SUCCESS in inserting new FT entry found!!
6864000: system.cpu.l1d.prefetcher: Updated AGT entry with:          0
6970000: system.cpu.l1i.prefetcher: INSERTENTRY(): spatio_region:       0X45, pc:   0x4228b0, physical addr:    0x22880
6970000: system.cpu.l1i.prefetcher: Created FT entry with:   0x4228b0
6970000: system.cpu.l1i.prefetcher: CONGRATS: SUCCESS in inserting new FT entry found!!
7061000: system.cpu.l1i.prefetcher: INSERTENTRY(): spatio_region:       0X45, pc:   0x4228c0, physical addr:    0x228c0
7061000: system.cpu.l1i.prefetcher: Created FT entry with:   0x4228c0
7061000: system.cpu.l1i.prefetcher: CONGRATS: SUCCESS in inserting new FT entry found!!
7125000: system.cpu.l1i.prefetcher: INSERTENTRY(): spatio_region:       0X45, pc:   0x422900, physical addr:    0x22900
7125000: system.cpu.l1i.prefetcher: Created FT entry with:   0x422900
7125000: system.cpu.l1i.prefetcher: CONGRATS: SUCCESS in inserting new FT entry found!!
7191000: system.cpu.l1i.prefetcher: INSERTENTRY(): spatio_region:       0X45, pc:   0x422940, physical addr:    0x22940
7191000: system.cpu.l1i.prefetcher: Created FT entry with:   0x422940
7191000: system.cpu.l1i.prefetcher: CONGRATS: SUCCESS in inserting new FT entry found!!
7257000: system.cpu.l1i.prefetcher: INSERTENTRY(): spatio_region:       0X45, pc:   0x422980, physical addr:    0x22980
7257000: system.cpu.l1i.prefetcher: Created FT entry with:   0x422980
7257000: system.cpu.l1i.prefetcher: CONGRATS: SUCCESS in inserting new FT entry found!!
7350000: system.cpu.l1i.prefetcher: INSERTENTRY(): spatio_region:      0X10A, pc:   0x485070, physical addr:    0x85040
7350000: system.cpu.l1i.prefetcher: Created FT entry with:   0x485070
7350000: system.cpu.l1i.prefetcher: CONGRATS: SUCCESS in inserting new FT entry found!!
7414000: system.cpu.l1i.prefetcher: INSERTENTRY(): spatio_region:      0X10A, pc:   0x485080, physical addr:    0x85080
7414000: system.cpu.l1i.prefetcher: Created FT entry with:   0x485080
7414000: system.cpu.l1i.prefetcher: CONGRATS: SUCCESS in inserting new FT entry found!!
7478000: system.cpu.l1i.prefetcher: INSERTENTRY(): spatio_region:      0X10A, pc:   0x4850c0, physical addr:    0x850c0
7478000: system.cpu.l1i.prefetcher: Created FT entry with:   0x4850c0
7478000: system.cpu.l1i.prefetcher: CONGRATS: SUCCESS in inserting new FT entry found!!
7544000: system.cpu.l1i.prefetcher: INSERTENTRY(): spatio_region:      0X10A, pc:   0x485100, physical addr:    0x85100
7544000: system.cpu.l1i.prefetcher: Created FT entry with:   0x485100
7544000: system.cpu.l1i.prefetcher: CONGRATS: SUCCESS in inserting new FT entry found!!
7641000: system.cpu.l1i.prefetcher: INSERTENTRY(): spatio_region:       0X43, pc:   0x421d80, physical addr:    0x21d80
7641000: system.cpu.l1i.prefetcher: Created FT entry with:   0x421d80
7641000: system.cpu.l1i.prefetcher: CONGRATS: SUCCESS in inserting new FT entry found!!
7742000: system.cpu.l1d.prefetcher: Updated AGT entry with:          0
7743000: system.cpu.l1d.prefetcher: Updated AGT entry with:          0
7848000: system.cpu.l1i.prefetcher: INSERTENTRY(): spatio_region:       0XE0, pc:   0x470490, physical addr:    0x70480
7848000: system.cpu.l1i.prefetcher: Created FT entry with:   0x470490
7848000: system.cpu.l1i.prefetcher: CONGRATS: SUCCESS in inserting new FT entry found!!
8125000: system.cpu.l1i.prefetcher: INSERTENTRY(): spatio_region:       0XE0, pc:   0x4704c0, physical addr:    0x704c0
8125000: system.cpu.l1i.prefetcher: Created FT entry with:   0x4704c0
8125000: system.cpu.l1i.prefetcher: CONGRATS: SUCCESS in inserting new FT entry found!!
8189000: system.cpu.l1i.prefetcher: INSERTENTRY(): spatio_region:       0XE0, pc:   0x470500, physical addr:    0x70500
8189000: system.cpu.l1i.prefetcher: Created FT entry with:   0x470500
8189000: system.cpu.l1i.prefetcher: CONGRATS: SUCCESS in inserting new FT entry found!!
8282000: system.cpu.l1i.prefetcher: INSERTENTRY(): spatio_region:       0X45, pc:   0x422810, physical addr:    0x22800
8282000: system.cpu.l1i.prefetcher: Created FT entry with:   0x422810
8282000: system.cpu.l1i.prefetcher: CONGRATS: SUCCESS in inserting new FT entry found!!
8359000: system.cpu.l1i.prefetcher: INSERTENTRY(): spatio_region:       0X45, pc:   0x422840, physical addr:    0x22840
8359000: system.cpu.l1i.prefetcher: Created FT entry with:   0x422840
8359000: system.cpu.l1i.prefetcher: CONGRATS: SUCCESS in inserting new FT entry found!!
8482000: system.cpu.l1d.prefetcher: Updated AGT entry with:          0
8560000: system.cpu.l1i.prefetcher: INSERTENTRY(): spatio_region:      0X10A, pc:   0x485030, physical addr:    0x85000
8560000: system.cpu.l1i.prefetcher: Created FT entry with:   0x485030
8560000: system.cpu.l1i.prefetcher: CONGRATS: SUCCESS in inserting new FT entry found!!
8653000: system.cpu.l1i.prefetcher: INSERTENTRY(): spatio_region:      0X10A, pc:   0x485140, physical addr:    0x85140
8653000: system.cpu.l1i.prefetcher: Created FT entry with:   0x485140
8653000: system.cpu.l1i.prefetcher: CONGRATS: SUCCESS in inserting new FT entry found!!
8746000: system.cpu.l1i.prefetcher: INSERTENTRY(): spatio_region:       0X45, pc:   0x4229d0, physical addr:    0x229c0
8746000: system.cpu.l1i.prefetcher: Created FT entry with:   0x4229d0
8746000: system.cpu.l1i.prefetcher: CONGRATS: SUCCESS in inserting new FT entry found!!
8810000: system.cpu.l1i.prefetcher: INSERTENTRY(): spatio_region:       0X45, pc:   0x422a00, physical addr:    0x22a00
8810000: system.cpu.l1i.prefetcher: Created FT entry with:   0x422a00
8810000: system.cpu.l1i.prefetcher: CONGRATS: SUCCESS in inserting new FT entry found!!
8876000: system.cpu.l1i.prefetcher: INSERTENTRY(): spatio_region:       0X45, pc:   0x422a40, physical addr:    0x22a40
8876000: system.cpu.l1i.prefetcher: Created FT entry with:   0x422a40
8876000: system.cpu.l1i.prefetcher: CONGRATS: SUCCESS in inserting new FT entry found!!
8969000: system.cpu.l1i.prefetcher: INSERTENTRY(): spatio_region:       0X44, pc:   0x4226e0, physical addr:    0x226c0
8969000: system.cpu.l1i.prefetcher: Created FT entry with:   0x4226e0
8969000: system.cpu.l1i.prefetcher: CONGRATS: SUCCESS in inserting new FT entry found!!
9033000: system.cpu.l1i.prefetcher: INSERTENTRY(): spatio_region:       0X44, pc:   0x422700, physical addr:    0x22700
9033000: system.cpu.l1i.prefetcher: Created FT entry with:   0x422700
9033000: system.cpu.l1i.prefetcher: CONGRATS: SUCCESS in inserting new FT entry found!!
9097000: system.cpu.l1i.prefetcher: INSERTENTRY(): spatio_region:       0X44, pc:   0x422740, physical addr:    0x22740
9097000: system.cpu.l1i.prefetcher: Created FT entry with:   0x422740
9097000: system.cpu.l1i.prefetcher: CONGRATS: SUCCESS in inserting new FT entry found!!
9170000: system.cpu.l1d.prefetcher: INSERTENTRY(): spatio_region:      0X17E, pc:   0x4026a8, physical addr:    0xbf078
9170000: system.cpu.l1d.prefetcher: Created FT entry with:   0x4026a8
9170000: system.cpu.l1d.prefetcher: CONGRATS: SUCCESS in inserting new FT entry found!!
9171000: system.cpu.l1d.prefetcher: Updated AGT entry with:          0
9271000: system.cpu.l1i.prefetcher: INSERTENTRY(): spatio_region:       0X43, pc:   0x421ec0, physical addr:    0x21ec0
9271000: system.cpu.l1i.prefetcher: Created FT entry with:   0x421ec0
9271000: system.cpu.l1i.prefetcher: CONGRATS: SUCCESS in inserting new FT entry found!!
9364000: system.cpu.l1i.prefetcher: INSERTENTRY(): spatio_region:       0X43, pc:   0x421f00, physical addr:    0x21f00
9364000: system.cpu.l1i.prefetcher: Created FT entry with:   0x421f00
9364000: system.cpu.l1i.prefetcher: CONGRATS: SUCCESS in inserting new FT entry found!!
9471000: system.cpu.l1i.prefetcher: INSERTENTRY(): spatio_region:       0X44, pc:   0x422780, physical addr:    0x22780
9471000: system.cpu.l1i.prefetcher: Created FT entry with:   0x422780
9471000: system.cpu.l1i.prefetcher: CONGRATS: SUCCESS in inserting new FT entry found!!
9564000: system.cpu.l1i.prefetcher: INSERTENTRY(): spatio_region:       0XDC, pc:   0x46e530, physical addr:    0x6e500
9564000: system.cpu.l1i.prefetcher: Created FT entry with:   0x46e530
9564000: system.cpu.l1i.prefetcher: CONGRATS: SUCCESS in inserting new FT entry found!!
9641000: system.cpu.l1i.prefetcher: INSERTENTRY(): spatio_region:       0XDC, pc:   0x46e540, physical addr:    0x6e540
9641000: system.cpu.l1i.prefetcher: Created FT entry with:   0x46e540
9641000: system.cpu.l1i.prefetcher: CONGRATS: SUCCESS in inserting new FT entry found!!
9705000: system.cpu.l1i.prefetcher: INSERTENTRY(): spatio_region:       0XDC, pc:   0x46e580, physical addr:    0x6e580
9705000: system.cpu.l1i.prefetcher: Created FT entry with:   0x46e580
9705000: system.cpu.l1i.prefetcher: CONGRATS: SUCCESS in inserting new FT entry found!!
9779000: system.cpu.l1d.prefetcher: Updated AGT entry with:          0
9780000: system.cpu.l1d.prefetcher: Updated AGT entry with:          0
9885000: system.cpu.l1i.prefetcher: INSERTENTRY(): spatio_region:       0X45, pc:   0x422b20, physical addr:    0x22b00
9885000: system.cpu.l1i.prefetcher: Created FT entry with:   0x422b20
9885000: system.cpu.l1i.prefetcher: CONGRATS: SUCCESS in inserting new FT entry found!!
9949000: system.cpu.l1i.prefetcher: INSERTENTRY(): spatio_region:       0X45, pc:   0x422b40, physical addr:    0x22b40
9949000: system.cpu.l1i.prefetcher: Created FT entry with:   0x422b40
9949000: system.cpu.l1i.prefetcher: CONGRATS: SUCCESS in inserting new FT entry found!!
10013000: system.cpu.l1i.prefetcher: INSERTENTRY(): spatio_region:       0X45, pc:   0x422b80, physical addr:    0x22b80
10013000: system.cpu.l1i.prefetcher: Created FT entry with:   0x422b80
10013000: system.cpu.l1i.prefetcher: CONGRATS: SUCCESS in inserting new FT entry found!!
10138000: system.cpu.l1i.prefetcher: INSERTENTRY(): spatio_region:       0X45, pc:   0x422a80, physical addr:    0x22a80
10138000: system.cpu.l1i.prefetcher: Created FT entry with:   0x422a80
10138000: system.cpu.l1i.prefetcher: CONGRATS: SUCCESS in inserting new FT entry found!!
10225000: system.cpu.l1d.prefetcher: Updated AGT entry with:          0
10290000: system.cpu.l1i.prefetcher: INSERTENTRY(): spatio_region:       0XDC, pc:   0x46e470, physical addr:    0x6e440
10290000: system.cpu.l1i.prefetcher: Created FT entry with:   0x46e470
10290000: system.cpu.l1i.prefetcher: CONGRATS: SUCCESS in inserting new FT entry found!!
10354000: system.cpu.l1i.prefetcher: INSERTENTRY(): spatio_region:       0XDC, pc:   0x46e480, physical addr:    0x6e480
10354000: system.cpu.l1i.prefetcher: Created FT entry with:   0x46e480
10354000: system.cpu.l1i.prefetcher: CONGRATS: SUCCESS in inserting new FT entry found!!
10418000: system.cpu.l1i.prefetcher: INSERTENTRY(): spatio_region:       0XDC, pc:   0x46e4c0, physical addr:    0x6e4c0
10418000: system.cpu.l1i.prefetcher: Created FT entry with:   0x46e4c0
10418000: system.cpu.l1i.prefetcher: CONGRATS: SUCCESS in inserting new FT entry found!!
10511000: system.cpu.l1i.prefetcher: INSERTENTRY(): spatio_region:       0XDF, pc:   0x46fd80, physical addr:    0x6fd80
10511000: system.cpu.l1i.prefetcher: Created FT entry with:   0x46fd80
10511000: system.cpu.l1i.prefetcher: CONGRATS: SUCCESS in inserting new FT entry found!!
10575000: system.cpu.l1i.prefetcher: INSERTENTRY(): spatio_region:       0XDF, pc:   0x46fdc0, physical addr:    0x6fdc0
10575000: system.cpu.l1i.prefetcher: Created FT entry with:   0x46fdc0
10575000: system.cpu.l1i.prefetcher: CONGRATS: SUCCESS in inserting new FT entry found!!
10678000: system.cpu.l1i.prefetcher: INSERTENTRY(): spatio_region:       0X45, pc:   0x422ac0, physical addr:    0x22ac0
10678000: system.cpu.l1i.prefetcher: Created FT entry with:   0x422ac0
10678000: system.cpu.l1i.prefetcher: CONGRATS: SUCCESS in inserting new FT entry found!!
10774000: system.cpu.l1i.prefetcher: INSERTENTRY(): spatio_region:       0X45, pc:   0x422bc0, physical addr:    0x22bc0
10774000: system.cpu.l1i.prefetcher: Created FT entry with:   0x422bc0
10774000: system.cpu.l1i.prefetcher: CONGRATS: SUCCESS in inserting new FT entry found!!
10847000: system.cpu.l1d.prefetcher: INSERTENTRY(): spatio_region:      0X17E, pc:   0x4026a8, physical addr:    0xbf038
10847000: system.cpu.l1d.prefetcher: Created FT entry with:   0x4026a8
10847000: system.cpu.l1d.prefetcher: CONGRATS: SUCCESS in inserting new FT entry found!!
10848000: system.cpu.l1d.prefetcher: Updated AGT entry with:          0
10988000: system.cpu.l1i.prefetcher: INSERTENTRY(): spatio_region:       0X44, pc:   0x4227c0, physical addr:    0x227c0
10988000: system.cpu.l1i.prefetcher: Created FT entry with:   0x4227c0
10988000: system.cpu.l1i.prefetcher: CONGRATS: SUCCESS in inserting new FT entry found!!
11115000: system.cpu.l1i.prefetcher: INSERTENTRY(): spatio_region:       0XDC, pc:   0x46e430, physical addr:    0x6e400
11115000: system.cpu.l1i.prefetcher: Created FT entry with:   0x46e430
11115000: system.cpu.l1i.prefetcher: CONGRATS: SUCCESS in inserting new FT entry found!!
11208000: system.cpu.l1d.prefetcher: Updated AGT entry with:          0
11209000: system.cpu.l1d.prefetcher: Updated AGT entry with:          0
11335000: system.cpu.l1i.prefetcher: INSERTENTRY(): spatio_region:        0X4, pc:   0x4027db, physical addr:     0x27c0
11335000: system.cpu.l1i.prefetcher: Created FT entry with:   0x4027db
11335000: system.cpu.l1i.prefetcher: CONGRATS: SUCCESS in inserting new FT entry found!!
11412000: system.cpu.l1i.prefetcher: INSERTENTRY(): spatio_region:        0X5, pc:   0x402800, physical addr:     0x2800
11412000: system.cpu.l1i.prefetcher: Created FT entry with:   0x402800
11412000: system.cpu.l1i.prefetcher: CONGRATS: SUCCESS in inserting new FT entry found!!
11476000: system.cpu.l1i.prefetcher: INSERTENTRY(): spatio_region:        0X5, pc:   0x402e30, physical addr:     0x2e00
11476000: system.cpu.l1i.prefetcher: Created FT entry with:   0x402e30
11476000: system.cpu.l1i.prefetcher: CONGRATS: SUCCESS in inserting new FT entry found!!
11540000: system.cpu.l1i.prefetcher: INSERTENTRY(): spatio_region:        0X5, pc:   0x402e40, physical addr:     0x2e40
11540000: system.cpu.l1i.prefetcher: Created FT entry with:   0x402e40
11540000: system.cpu.l1i.prefetcher: CONGRATS: SUCCESS in inserting new FT entry found!!
11604000: system.cpu.l1i.prefetcher: INSERTENTRY(): spatio_region:        0X5, pc:   0x402e80, physical addr:     0x2e80
11604000: system.cpu.l1i.prefetcher: Created FT entry with:   0x402e80
11604000: system.cpu.l1i.prefetcher: CONGRATS: SUCCESS in inserting new FT entry found!!
11613000: system.cpu.l1d.prefetcher: INSERTENTRY(): spatio_region:      0X180, pc:   0x402e49, physical addr:    0xc0180
11613000: system.cpu.l1d.prefetcher: Created FT entry with:   0x402e49
11613000: system.cpu.l1d.prefetcher: CONGRATS: SUCCESS in inserting new FT entry found!!
11668000: system.cpu.l1i.prefetcher: INSERTENTRY(): spatio_region:        0X5, pc:   0x402ec0, physical addr:     0x2ec0
11668000: system.cpu.l1i.prefetcher: Created FT entry with:   0x402ec0
11668000: system.cpu.l1i.prefetcher: CONGRATS: SUCCESS in inserting new FT entry found!!
11736000: system.cpu.l1i.prefetcher: INSERTENTRY(): spatio_region:        0X5, pc:   0x402f00, physical addr:     0x2f00
11736000: system.cpu.l1i.prefetcher: Created FT entry with:   0x402f00
11736000: system.cpu.l1i.prefetcher: CONGRATS: SUCCESS in inserting new FT entry found!!
11737000: system.cpu.l1d.prefetcher: Updated AGT entry with:          0
11800000: system.cpu.l1i.prefetcher: INSERTENTRY(): spatio_region:        0X5, pc:   0x402f40, physical addr:     0x2f40
11800000: system.cpu.l1i.prefetcher: Created FT entry with:   0x402f40
11800000: system.cpu.l1i.prefetcher: CONGRATS: SUCCESS in inserting new FT entry found!!
11876000: system.cpu.l1d.prefetcher: Updated AGT entry with:          0
11877000: system.cpu.l1d.prefetcher: Updated AGT entry with:          0
11947000: system.cpu.l1d.prefetcher: Updated AGT entry with:          0
11948000: system.cpu.l1d.prefetcher: Updated AGT entry with:          0
12018000: system.cpu.l1d.prefetcher: Updated AGT entry with:          0
12019000: system.cpu.l1d.prefetcher: Updated AGT entry with:          0
12089000: system.cpu.l1d.prefetcher: Updated AGT entry with:          0
12090000: system.cpu.l1d.prefetcher: Updated AGT entry with:          0
12160000: system.cpu.l1d.prefetcher: Updated AGT entry with:          0
12161000: system.cpu.l1d.prefetcher: Updated AGT entry with:          0
12231000: system.cpu.l1d.prefetcher: Updated AGT entry with:          0
12298000: system.cpu.l1d.prefetcher: INSERTENTRY(): spatio_region:      0X180, pc:   0x402eb4, physical addr:    0xc0220
12298000: system.cpu.l1d.prefetcher: Created FT entry with:   0x402eb4
12298000: system.cpu.l1d.prefetcher: CONGRATS: SUCCESS in inserting new FT entry found!!
12452000: system.cpu.l1i.prefetcher: INSERTENTRY(): spatio_region:        0X5, pc:   0x402f80, physical addr:     0x2f80
12452000: system.cpu.l1i.prefetcher: Created FT entry with:   0x402f80
12452000: system.cpu.l1i.prefetcher: CONGRATS: SUCCESS in inserting new FT entry found!!
12516000: system.cpu.l1i.prefetcher: INSERTENTRY(): spatio_region:       0X92, pc:   0x4495a0, physical addr:    0x49580
12516000: system.cpu.l1i.prefetcher: Created FT entry with:   0x4495a0
12516000: system.cpu.l1i.prefetcher: CONGRATS: SUCCESS in inserting new FT entry found!!
12593000: system.cpu.l1i.prefetcher: INSERTENTRY(): spatio_region:       0X92, pc:   0x4495c0, physical addr:    0x495c0
12593000: system.cpu.l1i.prefetcher: Created FT entry with:   0x4495c0
12593000: system.cpu.l1i.prefetcher: CONGRATS: SUCCESS in inserting new FT entry found!!
12600000: system.cpu.l1d.prefetcher: INSERTENTRY(): spatio_region:      0X18B, pc:   0x4495a6, physical addr:    0xc5cb8
12600000: system.cpu.l1d.prefetcher: Created FT entry with:   0x4495a6
12600000: system.cpu.l1d.prefetcher: CONGRATS: SUCCESS in inserting new FT entry found!!
12604000: system.cpu.l1d.prefetcher: INSERTENTRY(): spatio_region:      0X183, pc:   0x4495ae, physical addr:    0xc1f38
12604000: system.cpu.l1d.prefetcher: Created FT entry with:   0x4495ae
12604000: system.cpu.l1d.prefetcher: CONGRATS: SUCCESS in inserting new FT entry found!!
12657000: system.cpu.l1i.prefetcher: INSERTENTRY(): spatio_region:       0X92, pc:   0x449600, physical addr:    0x49600
12657000: system.cpu.l1i.prefetcher: Created FT entry with:   0x449600
12657000: system.cpu.l1i.prefetcher: CONGRATS: SUCCESS in inserting new FT entry found!!
12723000: system.cpu.l1i.prefetcher: INSERTENTRY(): spatio_region:       0X92, pc:   0x449640, physical addr:    0x49640
12723000: system.cpu.l1i.prefetcher: Created FT entry with:   0x449640
12723000: system.cpu.l1i.prefetcher: CONGRATS: SUCCESS in inserting new FT entry found!!
12787000: system.cpu.l1i.prefetcher: INSERTENTRY(): spatio_region:       0XE3, pc:   0x4718a0, physical addr:    0x71880
12787000: system.cpu.l1i.prefetcher: Created FT entry with:   0x4718a0
12787000: system.cpu.l1i.prefetcher: CONGRATS: SUCCESS in inserting new FT entry found!!
12851000: system.cpu.l1i.prefetcher: INSERTENTRY(): spatio_region:       0XE3, pc:   0x4718c0, physical addr:    0x718c0
12851000: system.cpu.l1i.prefetcher: Created FT entry with:   0x4718c0
12851000: system.cpu.l1i.prefetcher: CONGRATS: SUCCESS in inserting new FT entry found!!
12919000: system.cpu.l1i.prefetcher: INSERTENTRY(): spatio_region:       0XE3, pc:   0x471900, physical addr:    0x71900
12919000: system.cpu.l1i.prefetcher: Created FT entry with:   0x471900
12919000: system.cpu.l1i.prefetcher: CONGRATS: SUCCESS in inserting new FT entry found!!
12989000: system.cpu.l1i.prefetcher: INSERTENTRY(): spatio_region:       0X92, pc:   0x449680, physical addr:    0x49680
12989000: system.cpu.l1i.prefetcher: Created FT entry with:   0x449680
12989000: system.cpu.l1i.prefetcher: CONGRATS: SUCCESS in inserting new FT entry found!!
13082000: system.cpu.l1i.prefetcher: INSERTENTRY(): spatio_region:       0X92, pc:   0x4496c0, physical addr:    0x496c0
13082000: system.cpu.l1i.prefetcher: Created FT entry with:   0x4496c0
13082000: system.cpu.l1i.prefetcher: CONGRATS: SUCCESS in inserting new FT entry found!!
13153000: system.cpu.l1i.prefetcher: INSERTENTRY(): spatio_region:       0XE3, pc:   0x471940, physical addr:    0x71940
13153000: system.cpu.l1i.prefetcher: Created FT entry with:   0x471940
13153000: system.cpu.l1i.prefetcher: CONGRATS: SUCCESS in inserting new FT entry found!!
13253000: system.cpu.l1i.prefetcher: INSERTENTRY(): spatio_region:       0X92, pc:   0x449700, physical addr:    0x49700
13253000: system.cpu.l1i.prefetcher: Created FT entry with:   0x449700
13253000: system.cpu.l1i.prefetcher: CONGRATS: SUCCESS in inserting new FT entry found!!
13326000: system.cpu.l1d.prefetcher: INSERTENTRY(): spatio_region:      0X188, pc:   0x402ef0, physical addr:    0xc4320
13326000: system.cpu.l1d.prefetcher: Created FT entry with:   0x402ef0
13326000: system.cpu.l1d.prefetcher: CONGRATS: SUCCESS in inserting new FT entry found!!
13330000: system.cpu.l1i.prefetcher: INSERTENTRY(): spatio_region:        0X5, pc:   0x402fc0, physical addr:     0x2fc0
13330000: system.cpu.l1i.prefetcher: Created FT entry with:   0x402fc0
13330000: system.cpu.l1i.prefetcher: CONGRATS: SUCCESS in inserting new FT entry found!!
13401000: system.cpu.l1i.prefetcher: INSERTENTRY(): spatio_region:        0X6, pc:   0x403000, physical addr:     0x3000
13401000: system.cpu.l1i.prefetcher: Created FT entry with:   0x403000
13401000: system.cpu.l1i.prefetcher: CONGRATS: SUCCESS in inserting new FT entry found!!
13407000: system.cpu.l1d.prefetcher: INSERTENTRY(): spatio_region:      0X180, pc:   0x402f42, physical addr:    0xc0670
13407000: system.cpu.l1d.prefetcher: Created FT entry with:   0x402f42
13407000: system.cpu.l1d.prefetcher: CONGRATS: SUCCESS in inserting new FT entry found!!
13408000: system.cpu.l1d.prefetcher: Updated AGT entry with:          0
13465000: system.cpu.l1i.prefetcher: INSERTENTRY(): spatio_region:        0X2, pc:   0x401060, physical addr:     0x1040
13465000: system.cpu.l1i.prefetcher: Created FT entry with:   0x401060
13465000: system.cpu.l1i.prefetcher: CONGRATS: SUCCESS in inserting new FT entry found!!
13470000: system.cpu.l1d.prefetcher: Updated AGT entry with:          0
13556000: system.cpu.l1i.prefetcher: INSERTENTRY(): spatio_region:        0X2, pc:   0x401080, physical addr:     0x1080
13556000: system.cpu.l1i.prefetcher: Created FT entry with:   0x401080
13556000: system.cpu.l1i.prefetcher: CONGRATS: SUCCESS in inserting new FT entry found!!
13620000: system.cpu.l1i.prefetcher: INSERTENTRY(): spatio_region:       0X8B, pc:   0x445db0, physical addr:    0x45d80
13620000: system.cpu.l1i.prefetcher: Created FT entry with:   0x445db0
13620000: system.cpu.l1i.prefetcher: CONGRATS: SUCCESS in inserting new FT entry found!!
13711000: system.cpu.l1i.prefetcher: INSERTENTRY(): spatio_region:       0X8B, pc:   0x445dc0, physical addr:    0x45dc0
13711000: system.cpu.l1i.prefetcher: Created FT entry with:   0x445dc0
13711000: system.cpu.l1i.prefetcher: CONGRATS: SUCCESS in inserting new FT entry found!!
13775000: system.cpu.l1i.prefetcher: INSERTENTRY(): spatio_region:       0X8B, pc:   0x445e00, physical addr:    0x45e00
13775000: system.cpu.l1i.prefetcher: Created FT entry with:   0x445e00
13775000: system.cpu.l1i.prefetcher: CONGRATS: SUCCESS in inserting new FT entry found!!
13782000: system.cpu.l1d.prefetcher: INSERTENTRY(): spatio_region:      0X178, pc:   0x445dcb, physical addr:    0xbc0c0
13782000: system.cpu.l1d.prefetcher: Created FT entry with:   0x445dcb
13782000: system.cpu.l1d.prefetcher: CONGRATS: SUCCESS in inserting new FT entry found!!
13783000: system.cpu.l1d.prefetcher: Updated AGT entry with:          0
13839000: system.cpu.l1i.prefetcher: INSERTENTRY(): spatio_region:       0X8B, pc:   0x445e40, physical addr:    0x45e40
13839000: system.cpu.l1i.prefetcher: Created FT entry with:   0x445e40
13839000: system.cpu.l1i.prefetcher: CONGRATS: SUCCESS in inserting new FT entry found!!
13909000: system.cpu.l1d.prefetcher: INSERTENTRY(): spatio_region:      0X18F, pc:   0x445dd3, physical addr:    0xc7820
13909000: system.cpu.l1d.prefetcher: Created FT entry with:   0x445dd3
13909000: system.cpu.l1d.prefetcher: CONGRATS: SUCCESS in inserting new FT entry found!!
13910000: system.cpu.l1d.prefetcher: INSERTENTRY(): spatio_region:      0X18F, pc:   0x445dd3, physical addr:    0xc7828
13910000: system.cpu.l1d.prefetcher: Created FT entry with:   0x445dd3
13910000: system.cpu.l1d.prefetcher: CONGRATS: SUCCESS in inserting new FT entry found!!
13913000: system.cpu.l1i.prefetcher: INSERTENTRY(): spatio_region:       0X8B, pc:   0x445e80, physical addr:    0x45e80
13913000: system.cpu.l1i.prefetcher: Created FT entry with:   0x445e80
13913000: system.cpu.l1i.prefetcher: CONGRATS: SUCCESS in inserting new FT entry found!!
14001000: system.cpu.l1d.prefetcher: INSERTENTRY(): spatio_region:      0X18F, pc:   0x402f75, physical addr:    0xc7888
14001000: system.cpu.l1d.prefetcher: Created FT entry with:   0x402f75
14001000: system.cpu.l1d.prefetcher: CONGRATS: SUCCESS in inserting new FT entry found!!
14001000: system.cpu.l1i.prefetcher: INSERTENTRY(): spatio_region:        0X6, pc:   0x403040, physical addr:     0x3040
14001000: system.cpu.l1i.prefetcher: Created FT entry with:   0x403040
14001000: system.cpu.l1i.prefetcher: CONGRATS: SUCCESS in inserting new FT entry found!!
14004000: system.cpu.l1d.prefetcher: Updated AGT entry with:          0
14087000: system.cpu.l1i.prefetcher: INSERTENTRY(): spatio_region:        0X6, pc:   0x403080, physical addr:     0x3080
14087000: system.cpu.l1i.prefetcher: Created FT entry with:   0x403080
14087000: system.cpu.l1i.prefetcher: CONGRATS: SUCCESS in inserting new FT entry found!!
14091000: system.cpu.l1d.prefetcher: Updated AGT entry with:          0
14100000: system.cpu.l1d.prefetcher: INSERTENTRY(): spatio_region:      0X182, pc:   0x402fdf, physical addr:    0xc12b8
14100000: system.cpu.l1d.prefetcher: Created FT entry with:   0x402fdf
14100000: system.cpu.l1d.prefetcher: CONGRATS: SUCCESS in inserting new FT entry found!!
14184000: system.cpu.l1d.prefetcher: INSERTENTRY(): spatio_region:      0X182, pc:   0x403005, physical addr:    0xc1290
14184000: system.cpu.l1d.prefetcher: Created FT entry with:   0x403005
14184000: system.cpu.l1d.prefetcher: CONGRATS: SUCCESS in inserting new FT entry found!!
14188000: system.cpu.l1i.prefetcher: INSERTENTRY(): spatio_region:        0X6, pc:   0x4030c0, physical addr:     0x30c0
14188000: system.cpu.l1i.prefetcher: Created FT entry with:   0x4030c0
14188000: system.cpu.l1i.prefetcher: CONGRATS: SUCCESS in inserting new FT entry found!!
14256000: system.cpu.l1i.prefetcher: INSERTENTRY(): spatio_region:        0X5, pc:   0x402840, physical addr:     0x2840
14256000: system.cpu.l1i.prefetcher: Created FT entry with:   0x402840
14256000: system.cpu.l1i.prefetcher: CONGRATS: SUCCESS in inserting new FT entry found!!
14262000: system.cpu.l1d.prefetcher: Updated AGT entry with:          0
14320000: system.cpu.l1i.prefetcher: INSERTENTRY(): spatio_region:        0X5, pc:   0x402a5e, physical addr:     0x2a40
14320000: system.cpu.l1i.prefetcher: Created FT entry with:   0x402a5e
14320000: system.cpu.l1i.prefetcher: CONGRATS: SUCCESS in inserting new FT entry found!!
14384000: system.cpu.l1i.prefetcher: INSERTENTRY(): spatio_region:        0X5, pc:   0x402a80, physical addr:     0x2a80
14384000: system.cpu.l1i.prefetcher: Created FT entry with:   0x402a80
14384000: system.cpu.l1i.prefetcher: CONGRATS: SUCCESS in inserting new FT entry found!!
14461000: system.cpu.l1i.prefetcher: INSERTENTRY(): spatio_region:       0X9C, pc:   0x44e680, physical addr:    0x4e680
14461000: system.cpu.l1i.prefetcher: Created FT entry with:   0x44e680
14461000: system.cpu.l1i.prefetcher: CONGRATS: SUCCESS in inserting new FT entry found!!
14552000: system.cpu.l1i.prefetcher: INSERTENTRY(): spatio_region:       0X9C, pc:   0x44e6c0, physical addr:    0x4e6c0
14552000: system.cpu.l1i.prefetcher: Created FT entry with:   0x44e6c0
14552000: system.cpu.l1i.prefetcher: CONGRATS: SUCCESS in inserting new FT entry found!!
14568000: system.cpu.l1d.prefetcher: Updated AGT entry with:          0
14616000: system.cpu.l1i.prefetcher: INSERTENTRY(): spatio_region:       0XE2, pc:   0x471650, physical addr:    0x71640
14616000: system.cpu.l1i.prefetcher: Created FT entry with:   0x471650
14616000: system.cpu.l1i.prefetcher: CONGRATS: SUCCESS in inserting new FT entry found!!
14680000: system.cpu.l1i.prefetcher: INSERTENTRY(): spatio_region:       0XE2, pc:   0x471680, physical addr:    0x71680
14680000: system.cpu.l1i.prefetcher: Created FT entry with:   0x471680
14680000: system.cpu.l1i.prefetcher: CONGRATS: SUCCESS in inserting new FT entry found!!
14748000: system.cpu.l1i.prefetcher: INSERTENTRY(): spatio_region:       0XE2, pc:   0x4716c0, physical addr:    0x716c0
14748000: system.cpu.l1i.prefetcher: Created FT entry with:   0x4716c0
14748000: system.cpu.l1i.prefetcher: CONGRATS: SUCCESS in inserting new FT entry found!!
14816000: system.cpu.l1i.prefetcher: INSERTENTRY(): spatio_region:       0X9C, pc:   0x44e700, physical addr:    0x4e700
14816000: system.cpu.l1i.prefetcher: Created FT entry with:   0x44e700
14816000: system.cpu.l1i.prefetcher: CONGRATS: SUCCESS in inserting new FT entry found!!
14820000: system.cpu.l1d.prefetcher: Updated AGT entry with:          0
14880000: system.cpu.l1i.prefetcher: INSERTENTRY(): spatio_region:       0X9C, pc:   0x44e740, physical addr:    0x4e740
14880000: system.cpu.l1i.prefetcher: Created FT entry with:   0x44e740
14880000: system.cpu.l1i.prefetcher: CONGRATS: SUCCESS in inserting new FT entry found!!
14957000: system.cpu.l1i.prefetcher: INSERTENTRY(): spatio_region:       0X9C, pc:   0x44e780, physical addr:    0x4e780
14957000: system.cpu.l1i.prefetcher: Created FT entry with:   0x44e780
14957000: system.cpu.l1i.prefetcher: CONGRATS: SUCCESS in inserting new FT entry found!!
15137000: system.cpu.l1i.prefetcher: INSERTENTRY(): spatio_region:        0X5, pc:   0x402ac0, physical addr:     0x2ac0
15137000: system.cpu.l1i.prefetcher: Created FT entry with:   0x402ac0
15137000: system.cpu.l1i.prefetcher: CONGRATS: SUCCESS in inserting new FT entry found!!
15205000: system.cpu.l1i.prefetcher: INSERTENTRY(): spatio_region:        0X5, pc:   0x402880, physical addr:     0x2880
15205000: system.cpu.l1i.prefetcher: Created FT entry with:   0x402880
15205000: system.cpu.l1i.prefetcher: CONGRATS: SUCCESS in inserting new FT entry found!!
15208000: system.cpu.l1d.prefetcher: INSERTENTRY(): spatio_region:      0X17D, pc:   0x402810, physical addr:    0xbef80
15208000: system.cpu.l1d.prefetcher: Created FT entry with:   0x402810
15208000: system.cpu.l1d.prefetcher: CONGRATS: SUCCESS in inserting new FT entry found!!
15277000: system.cpu.l1i.prefetcher: INSERTENTRY(): spatio_region:        0X5, pc:   0x4028c0, physical addr:     0x28c0
15277000: system.cpu.l1i.prefetcher: Created FT entry with:   0x4028c0
15277000: system.cpu.l1i.prefetcher: CONGRATS: SUCCESS in inserting new FT entry found!!
15376000: system.cpu.l1i.prefetcher: INSERTENTRY(): spatio_region:        0X5, pc:   0x402900, physical addr:     0x2900
15376000: system.cpu.l1i.prefetcher: Created FT entry with:   0x402900
15376000: system.cpu.l1i.prefetcher: CONGRATS: SUCCESS in inserting new FT entry found!!
15442000: system.cpu.l1i.prefetcher: INSERTENTRY(): spatio_region:       0X9C, pc:   0x44e7c0, physical addr:    0x4e7c0
15442000: system.cpu.l1i.prefetcher: Created FT entry with:   0x44e7c0
15442000: system.cpu.l1i.prefetcher: CONGRATS: SUCCESS in inserting new FT entry found!!
15508000: system.cpu.l1i.prefetcher: INSERTENTRY(): spatio_region:       0X9D, pc:   0x44e800, physical addr:    0x4e800
15508000: system.cpu.l1i.prefetcher: Created FT entry with:   0x44e800
15508000: system.cpu.l1i.prefetcher: CONGRATS: SUCCESS in inserting new FT entry found!!
15513000: system.cpu.l1d.prefetcher: INSERTENTRY(): spatio_region:      0X181, pc:   0x44e7f0, physical addr:    0xc0a68
15513000: system.cpu.l1d.prefetcher: Created FT entry with:   0x44e7f0
15513000: system.cpu.l1d.prefetcher: CONGRATS: SUCCESS in inserting new FT entry found!!
15572000: system.cpu.l1i.prefetcher: INSERTENTRY(): spatio_region:       0X9D, pc:   0x44e840, physical addr:    0x4e840
15572000: system.cpu.l1i.prefetcher: Created FT entry with:   0x44e840
15572000: system.cpu.l1i.prefetcher: CONGRATS: SUCCESS in inserting new FT entry found!!
15957000: system.cpu.l1i.prefetcher: INSERTENTRY(): spatio_region:       0X99, pc:   0x44cc40, physical addr:    0x4cc40
15957000: system.cpu.l1i.prefetcher: Created FT entry with:   0x44cc40
15957000: system.cpu.l1i.prefetcher: CONGRATS: SUCCESS in inserting new FT entry found!!
16034000: system.cpu.l1i.prefetcher: INSERTENTRY(): spatio_region:       0XF7, pc:   0x47bf60, physical addr:    0x7bf40
16034000: system.cpu.l1i.prefetcher: Created FT entry with:   0x47bf60
16034000: system.cpu.l1i.prefetcher: CONGRATS: SUCCESS in inserting new FT entry found!!
16111000: system.cpu.l1i.prefetcher: INSERTENTRY(): spatio_region:       0XF7, pc:   0x47bf80, physical addr:    0x7bf80
16111000: system.cpu.l1i.prefetcher: Created FT entry with:   0x47bf80
16111000: system.cpu.l1i.prefetcher: CONGRATS: SUCCESS in inserting new FT entry found!!
16118000: system.cpu.l1d.prefetcher: Updated AGT entry with:          0
16121000: system.cpu.l1d.prefetcher: Updated AGT entry with:          0
16179000: system.cpu.l1i.prefetcher: INSERTENTRY(): spatio_region:       0XF7, pc:   0x47bfc0, physical addr:    0x7bfc0
16179000: system.cpu.l1i.prefetcher: Created FT entry with:   0x47bfc0
16179000: system.cpu.l1i.prefetcher: CONGRATS: SUCCESS in inserting new FT entry found!!
16194000: system.cpu.l1d.prefetcher: INSERTENTRY(): spatio_region:      0X191, pc:   0x47bf71, physical addr:    0xc8c68
16194000: system.cpu.l1d.prefetcher: Created FT entry with:   0x47bf71
16194000: system.cpu.l1d.prefetcher: CONGRATS: SUCCESS in inserting new FT entry found!!
16243000: system.cpu.l1i.prefetcher: INSERTENTRY(): spatio_region:       0XF8, pc:   0x47c000, physical addr:    0x7c000
16243000: system.cpu.l1i.prefetcher: Created FT entry with:   0x47c000
16243000: system.cpu.l1i.prefetcher: CONGRATS: SUCCESS in inserting new FT entry found!!
16332000: system.cpu.l1i.prefetcher: INSERTENTRY(): spatio_region:       0XF8, pc:   0x47c040, physical addr:    0x7c040
16332000: system.cpu.l1i.prefetcher: Created FT entry with:   0x47c040
16332000: system.cpu.l1i.prefetcher: CONGRATS: SUCCESS in inserting new FT entry found!!
16416000: system.cpu.l1d.prefetcher: Updated AGT entry with:          0
16653000: system.cpu.l1i.prefetcher: INSERTENTRY(): spatio_region:       0XF8, pc:   0x47c080, physical addr:    0x7c080
16653000: system.cpu.l1i.prefetcher: Created FT entry with:   0x47c080
16653000: system.cpu.l1i.prefetcher: CONGRATS: SUCCESS in inserting new FT entry found!!
16717000: system.cpu.l1i.prefetcher: INSERTENTRY(): spatio_region:       0X3E, pc:   0x41f360, physical addr:    0x1f340
16717000: system.cpu.l1i.prefetcher: Created FT entry with:   0x41f360
16717000: system.cpu.l1i.prefetcher: CONGRATS: SUCCESS in inserting new FT entry found!!
16794000: system.cpu.l1i.prefetcher: INSERTENTRY(): spatio_region:       0X3E, pc:   0x41f380, physical addr:    0x1f380
16794000: system.cpu.l1i.prefetcher: Created FT entry with:   0x41f380
16794000: system.cpu.l1i.prefetcher: CONGRATS: SUCCESS in inserting new FT entry found!!
16800000: system.cpu.l1d.prefetcher: INSERTENTRY(): spatio_region:      0X17E, pc:   0x41f366, physical addr:    0xbf790
16800000: system.cpu.l1d.prefetcher: Created FT entry with:   0x41f366
16800000: system.cpu.l1d.prefetcher: CONGRATS: SUCCESS in inserting new FT entry found!!
16858000: system.cpu.l1i.prefetcher: INSERTENTRY(): spatio_region:       0X3E, pc:   0x41f3c0, physical addr:    0x1f3c0
16858000: system.cpu.l1i.prefetcher: Created FT entry with:   0x41f3c0
16858000: system.cpu.l1i.prefetcher: CONGRATS: SUCCESS in inserting new FT entry found!!
16949000: system.cpu.l1i.prefetcher: INSERTENTRY(): spatio_region:       0X3E, pc:   0x41f4d0, physical addr:    0x1f4c0
16949000: system.cpu.l1i.prefetcher: Created FT entry with:   0x41f4d0
16949000: system.cpu.l1i.prefetcher: CONGRATS: SUCCESS in inserting new FT entry found!!
17013000: system.cpu.l1i.prefetcher: INSERTENTRY(): spatio_region:       0X3E, pc:   0x41f500, physical addr:    0x1f500
17013000: system.cpu.l1i.prefetcher: Created FT entry with:   0x41f500
17013000: system.cpu.l1i.prefetcher: CONGRATS: SUCCESS in inserting new FT entry found!!
17077000: system.cpu.l1i.prefetcher: INSERTENTRY(): spatio_region:       0X3D, pc:   0x41eda0, physical addr:    0x1ed80
17077000: system.cpu.l1i.prefetcher: Created FT entry with:   0x41eda0
17077000: system.cpu.l1i.prefetcher: CONGRATS: SUCCESS in inserting new FT entry found!!
17141000: system.cpu.l1i.prefetcher: INSERTENTRY(): spatio_region:       0X3D, pc:   0x41edc0, physical addr:    0x1edc0
17141000: system.cpu.l1i.prefetcher: Created FT entry with:   0x41edc0
17141000: system.cpu.l1i.prefetcher: CONGRATS: SUCCESS in inserting new FT entry found!!
17146000: system.cpu.l1d.prefetcher: INSERTENTRY(): spatio_region:      0X17E, pc:   0x41eda4, physical addr:    0xbf6e4
17146000: system.cpu.l1d.prefetcher: Created FT entry with:   0x41eda4
17146000: system.cpu.l1d.prefetcher: CONGRATS: SUCCESS in inserting new FT entry found!!
17205000: system.cpu.l1i.prefetcher: INSERTENTRY(): spatio_region:       0X3D, pc:   0x41ee00, physical addr:    0x1ee00
17205000: system.cpu.l1i.prefetcher: Created FT entry with:   0x41ee00
17205000: system.cpu.l1i.prefetcher: CONGRATS: SUCCESS in inserting new FT entry found!!
17296000: system.cpu.l1i.prefetcher: INSERTENTRY(): spatio_region:       0X3D, pc:   0x41eef0, physical addr:    0x1eec0
17296000: system.cpu.l1i.prefetcher: Created FT entry with:   0x41eef0
17296000: system.cpu.l1i.prefetcher: CONGRATS: SUCCESS in inserting new FT entry found!!
17360000: system.cpu.l1i.prefetcher: INSERTENTRY(): spatio_region:       0X3D, pc:   0x41ef00, physical addr:    0x1ef00
17360000: system.cpu.l1i.prefetcher: Created FT entry with:   0x41ef00
17360000: system.cpu.l1i.prefetcher: CONGRATS: SUCCESS in inserting new FT entry found!!
17366000: system.cpu.l1d.prefetcher: Updated AGT entry with:          0
17424000: system.cpu.l1i.prefetcher: INSERTENTRY(): spatio_region:       0X3C, pc:   0x41e370, physical addr:    0x1e340
17424000: system.cpu.l1i.prefetcher: Created FT entry with:   0x41e370
17424000: system.cpu.l1i.prefetcher: CONGRATS: SUCCESS in inserting new FT entry found!!
17488000: system.cpu.l1i.prefetcher: INSERTENTRY(): spatio_region:       0X3C, pc:   0x41e380, physical addr:    0x1e380
17488000: system.cpu.l1i.prefetcher: Created FT entry with:   0x41e380
17488000: system.cpu.l1i.prefetcher: CONGRATS: SUCCESS in inserting new FT entry found!!
17552000: system.cpu.l1i.prefetcher: INSERTENTRY(): spatio_region:       0X3C, pc:   0x41e3c0, physical addr:    0x1e3c0
17552000: system.cpu.l1i.prefetcher: Created FT entry with:   0x41e3c0
17552000: system.cpu.l1i.prefetcher: CONGRATS: SUCCESS in inserting new FT entry found!!
17563000: system.cpu.l1d.prefetcher: Updated AGT entry with:          0
17572000: system.cpu.l1d.prefetcher: INSERTENTRY(): spatio_region:      0X17F, pc:   0x41e3bd, physical addr:    0xbf818
17572000: system.cpu.l1d.prefetcher: Created FT entry with:   0x41e3bd
17572000: system.cpu.l1d.prefetcher: CONGRATS: SUCCESS in inserting new FT entry found!!
17616000: system.cpu.l1i.prefetcher: INSERTENTRY(): spatio_region:       0X3C, pc:   0x41e400, physical addr:    0x1e400
17616000: system.cpu.l1i.prefetcher: Created FT entry with:   0x41e400
17616000: system.cpu.l1i.prefetcher: CONGRATS: SUCCESS in inserting new FT entry found!!
17639000: system.cpu.l1d.prefetcher: INSERTENTRY(): spatio_region:      0X17F, pc:   0x41e3bd, physical addr:    0xbf810
17639000: system.cpu.l1d.prefetcher: Created FT entry with:   0x41e3bd
17639000: system.cpu.l1d.prefetcher: CONGRATS: SUCCESS in inserting new FT entry found!!
17715000: system.cpu.l1i.prefetcher: INSERTENTRY(): spatio_region:       0X3C, pc:   0x41e440, physical addr:    0x1e440
17715000: system.cpu.l1i.prefetcher: Created FT entry with:   0x41e440
17715000: system.cpu.l1i.prefetcher: CONGRATS: SUCCESS in inserting new FT entry found!!
17797000: system.cpu.l1i.prefetcher: INSERTENTRY(): spatio_region:       0X3C, pc:   0x41e480, physical addr:    0x1e480
17797000: system.cpu.l1i.prefetcher: Created FT entry with:   0x41e480
17797000: system.cpu.l1i.prefetcher: CONGRATS: SUCCESS in inserting new FT entry found!!
17874000: system.cpu.l1d.prefetcher: INSERTENTRY(): spatio_region:      0X17F, pc:   0x41e3bd, physical addr:    0xbf848
17874000: system.cpu.l1d.prefetcher: Created FT entry with:   0x41e3bd
17874000: system.cpu.l1d.prefetcher: CONGRATS: SUCCESS in inserting new FT entry found!!
17875000: system.cpu.l1d.prefetcher: Updated AGT entry with:          0
18005000: system.cpu.l1d.prefetcher: Updated AGT entry with:          0
18006000: system.cpu.l1d.prefetcher: Updated AGT entry with:          0
18109000: system.cpu.l1d.prefetcher: Updated AGT entry with:          0
18110000: system.cpu.l1d.prefetcher: Updated AGT entry with:          0
18213000: system.cpu.l1d.prefetcher: Updated AGT entry with:          0
18214000: system.cpu.l1d.prefetcher: Updated AGT entry with:          0
18317000: system.cpu.l1d.prefetcher: Updated AGT entry with:          0
18318000: system.cpu.l1d.prefetcher: Updated AGT entry with:          0
18421000: system.cpu.l1d.prefetcher: Updated AGT entry with:          0
18422000: system.cpu.l1d.prefetcher: Updated AGT entry with:          0
18525000: system.cpu.l1d.prefetcher: Updated AGT entry with:          0
18526000: system.cpu.l1d.prefetcher: Updated AGT entry with:          0
18629000: system.cpu.l1d.prefetcher: Updated AGT entry with:          0
18630000: system.cpu.l1d.prefetcher: INSERTENTRY(): spatio_region:      0X17F, pc:   0x41e3bd, physical addr:    0xbfa00
18630000: system.cpu.l1d.prefetcher: Created FT entry with:   0x41e3bd
18630000: system.cpu.l1d.prefetcher: CONGRATS: SUCCESS in inserting new FT entry found!!
18733000: system.cpu.l1d.prefetcher: INSERTENTRY(): spatio_region:      0X17F, pc:   0x41e3bd, physical addr:    0xbfa48
18733000: system.cpu.l1d.prefetcher: Created FT entry with:   0x41e3bd
18733000: system.cpu.l1d.prefetcher: CONGRATS: SUCCESS in inserting new FT entry found!!
18734000: system.cpu.l1d.prefetcher: INSERTENTRY(): spatio_region:      0X17F, pc:   0x41e3bd, physical addr:    0xbfa40
18734000: system.cpu.l1d.prefetcher: Created FT entry with:   0x41e3bd
18734000: system.cpu.l1d.prefetcher: CONGRATS: SUCCESS in inserting new FT entry found!!
18837000: system.cpu.l1d.prefetcher: INSERTENTRY(): spatio_region:      0X17F, pc:   0x41e3bd, physical addr:    0xbfa88
18837000: system.cpu.l1d.prefetcher: Created FT entry with:   0x41e3bd
18837000: system.cpu.l1d.prefetcher: CONGRATS: SUCCESS in inserting new FT entry found!!
18838000: system.cpu.l1d.prefetcher: INSERTENTRY(): spatio_region:      0X17F, pc:   0x41e3bd, physical addr:    0xbfa80
18838000: system.cpu.l1d.prefetcher: Created FT entry with:   0x41e3bd
18838000: system.cpu.l1d.prefetcher: CONGRATS: SUCCESS in inserting new FT entry found!!
18941000: system.cpu.l1d.prefetcher: INSERTENTRY(): spatio_region:      0X17F, pc:   0x41e3bd, physical addr:    0xbfac8
18941000: system.cpu.l1d.prefetcher: Created FT entry with:   0x41e3bd
18941000: system.cpu.l1d.prefetcher: CONGRATS: SUCCESS in inserting new FT entry found!!
18942000: system.cpu.l1d.prefetcher: Updated AGT entry with:          0
19045000: system.cpu.l1d.prefetcher: Updated AGT entry with:          0
19046000: system.cpu.l1d.prefetcher: Updated AGT entry with:          0
19149000: system.cpu.l1d.prefetcher: Updated AGT entry with:          0
19150000: system.cpu.l1d.prefetcher: Updated AGT entry with:          0
19253000: system.cpu.l1d.prefetcher: Updated AGT entry with:          0
19254000: system.cpu.l1d.prefetcher: Updated AGT entry with:          0
19357000: system.cpu.l1d.prefetcher: Updated AGT entry with:          0
19358000: system.cpu.l1d.prefetcher: Updated AGT entry with:          0
19461000: system.cpu.l1d.prefetcher: Updated AGT entry with:          0
19462000: system.cpu.l1d.prefetcher: Updated AGT entry with:          0
19565000: system.cpu.l1d.prefetcher: Updated AGT entry with:          0
19566000: system.cpu.l1d.prefetcher: Updated AGT entry with:          0
19682000: system.cpu.l1d.prefetcher: Updated AGT entry with:          0
19683000: system.cpu.l1d.prefetcher: Updated AGT entry with:          0
19786000: system.cpu.l1d.prefetcher: Updated AGT entry with:          0
19787000: system.cpu.l1d.prefetcher: Updated AGT entry with:          0
19890000: system.cpu.l1d.prefetcher: Updated AGT entry with:          0
19891000: system.cpu.l1d.prefetcher: Updated AGT entry with:          0
19994000: system.cpu.l1d.prefetcher: Updated AGT entry with:          0
19995000: system.cpu.l1d.prefetcher: INSERTENTRY(): spatio_region:      0X17F, pc:   0x41e3bd, physical addr:    0xbfd40
19995000: system.cpu.l1d.prefetcher: Created FT entry with:   0x41e3bd
19995000: system.cpu.l1d.prefetcher: CONGRATS: SUCCESS in inserting new FT entry found!!
20098000: system.cpu.l1d.prefetcher: INSERTENTRY(): spatio_region:      0X17F, pc:   0x41e3bd, physical addr:    0xbfd88
20098000: system.cpu.l1d.prefetcher: Created FT entry with:   0x41e3bd
20098000: system.cpu.l1d.prefetcher: CONGRATS: SUCCESS in inserting new FT entry found!!
20099000: system.cpu.l1d.prefetcher: INSERTENTRY(): spatio_region:      0X17F, pc:   0x41e3bd, physical addr:    0xbfd80
20099000: system.cpu.l1d.prefetcher: Created FT entry with:   0x41e3bd
20099000: system.cpu.l1d.prefetcher: CONGRATS: SUCCESS in inserting new FT entry found!!
20202000: system.cpu.l1d.prefetcher: INSERTENTRY(): spatio_region:      0X17F, pc:   0x41e3bd, physical addr:    0xbfdc8
20202000: system.cpu.l1d.prefetcher: Created FT entry with:   0x41e3bd
20202000: system.cpu.l1d.prefetcher: CONGRATS: SUCCESS in inserting new FT entry found!!
20203000: system.cpu.l1d.prefetcher: INSERTENTRY(): spatio_region:      0X17F, pc:   0x41e3bd, physical addr:    0xbfdc0
20203000: system.cpu.l1d.prefetcher: Created FT entry with:   0x41e3bd
20203000: system.cpu.l1d.prefetcher: CONGRATS: SUCCESS in inserting new FT entry found!!
20306000: system.cpu.l1d.prefetcher: INSERTENTRY(): spatio_region:      0X17F, pc:   0x41e3bd, physical addr:    0xbfe08
20306000: system.cpu.l1d.prefetcher: Created FT entry with:   0x41e3bd
20306000: system.cpu.l1d.prefetcher: CONGRATS: SUCCESS in inserting new FT entry found!!
20307000: system.cpu.l1d.prefetcher: INSERTENTRY(): spatio_region:      0X17F, pc:   0x41e3bd, physical addr:    0xbfe00
20307000: system.cpu.l1d.prefetcher: Created FT entry with:   0x41e3bd
20307000: system.cpu.l1d.prefetcher: CONGRATS: SUCCESS in inserting new FT entry found!!
20410000: system.cpu.l1d.prefetcher: INSERTENTRY(): spatio_region:      0X17F, pc:   0x41e3bd, physical addr:    0xbfe48
20410000: system.cpu.l1d.prefetcher: Created FT entry with:   0x41e3bd
20410000: system.cpu.l1d.prefetcher: CONGRATS: SUCCESS in inserting new FT entry found!!
20411000: system.cpu.l1d.prefetcher: INSERTENTRY(): spatio_region:      0X17F, pc:   0x41e3bd, physical addr:    0xbfe40
20411000: system.cpu.l1d.prefetcher: Created FT entry with:   0x41e3bd
20411000: system.cpu.l1d.prefetcher: CONGRATS: SUCCESS in inserting new FT entry found!!
20514000: system.cpu.l1d.prefetcher: INSERTENTRY(): spatio_region:      0X17F, pc:   0x41e3bd, physical addr:    0xbfe88
20514000: system.cpu.l1d.prefetcher: Created FT entry with:   0x41e3bd
20514000: system.cpu.l1d.prefetcher: CONGRATS: SUCCESS in inserting new FT entry found!!
20515000: system.cpu.l1d.prefetcher: INSERTENTRY(): spatio_region:      0X17F, pc:   0x41e3bd, physical addr:    0xbfe80
20515000: system.cpu.l1d.prefetcher: Created FT entry with:   0x41e3bd
20515000: system.cpu.l1d.prefetcher: CONGRATS: SUCCESS in inserting new FT entry found!!
20618000: system.cpu.l1d.prefetcher: INSERTENTRY(): spatio_region:      0X17F, pc:   0x41e3bd, physical addr:    0xbfec8
20618000: system.cpu.l1d.prefetcher: Created FT entry with:   0x41e3bd
20618000: system.cpu.l1d.prefetcher: CONGRATS: SUCCESS in inserting new FT entry found!!
20619000: system.cpu.l1d.prefetcher: INSERTENTRY(): spatio_region:      0X17F, pc:   0x41e3bd, physical addr:    0xbfec0
20619000: system.cpu.l1d.prefetcher: Created FT entry with:   0x41e3bd
20619000: system.cpu.l1d.prefetcher: CONGRATS: SUCCESS in inserting new FT entry found!!
20722000: system.cpu.l1d.prefetcher: INSERTENTRY(): spatio_region:      0X17F, pc:   0x41e3bd, physical addr:    0xbff08
20722000: system.cpu.l1d.prefetcher: Created FT entry with:   0x41e3bd
20722000: system.cpu.l1d.prefetcher: CONGRATS: SUCCESS in inserting new FT entry found!!
20723000: system.cpu.l1d.prefetcher: INSERTENTRY(): spatio_region:      0X17F, pc:   0x41e3bd, physical addr:    0xbff00
20723000: system.cpu.l1d.prefetcher: Created FT entry with:   0x41e3bd
20723000: system.cpu.l1d.prefetcher: CONGRATS: SUCCESS in inserting new FT entry found!!
20826000: system.cpu.l1d.prefetcher: INSERTENTRY(): spatio_region:      0X17F, pc:   0x41e3bd, physical addr:    0xbff48
20826000: system.cpu.l1d.prefetcher: Created FT entry with:   0x41e3bd
20826000: system.cpu.l1d.prefetcher: CONGRATS: SUCCESS in inserting new FT entry found!!
20827000: system.cpu.l1d.prefetcher: INSERTENTRY(): spatio_region:      0X17F, pc:   0x41e3bd, physical addr:    0xbff40
20827000: system.cpu.l1d.prefetcher: Created FT entry with:   0x41e3bd
20827000: system.cpu.l1d.prefetcher: CONGRATS: SUCCESS in inserting new FT entry found!!
20930000: system.cpu.l1d.prefetcher: INSERTENTRY(): spatio_region:      0X17F, pc:   0x41e3bd, physical addr:    0xbff88
20930000: system.cpu.l1d.prefetcher: Created FT entry with:   0x41e3bd
20930000: system.cpu.l1d.prefetcher: CONGRATS: SUCCESS in inserting new FT entry found!!
20931000: system.cpu.l1d.prefetcher: INSERTENTRY(): spatio_region:      0X17F, pc:   0x41e3bd, physical addr:    0xbff80
[...]
77730000: system.cpu.l1d.prefetcher: Created FT entry with:   0x401ea0
77730000: system.cpu.l1d.prefetcher: CONGRATS: SUCCESS in inserting new FT entry found!!
77802000: system.cpu.l1d.prefetcher: INSERTENTRY(): spatio_region:      0X187, pc:   0x401eb7, physical addr:    0xc3fc0
77802000: system.cpu.l1d.prefetcher: Created FT entry with:   0x401eb7
77802000: system.cpu.l1d.prefetcher: CONGRATS: SUCCESS in inserting new FT entry found!!
78026000: system.cpu.l1d.prefetcher: INSERTENTRY(): spatio_region:      0X188, pc:   0x401ea0, physical addr:    0xc4000
78026000: system.cpu.l1d.prefetcher: Created FT entry with:   0x401ea0
78026000: system.cpu.l1d.prefetcher: CONGRATS: SUCCESS in inserting new FT entry found!!
78216000: system.cpu.l1d.prefetcher: INSERTENTRY(): spatio_region:      0X188, pc:   0x401eb7, physical addr:    0xc4040
78216000: system.cpu.l1d.prefetcher: Created FT entry with:   0x401eb7
78216000: system.cpu.l1d.prefetcher: CONGRATS: SUCCESS in inserting new FT entry found!!
78440000: system.cpu.l1d.prefetcher: Updated AGT entry with:          0
78512000: system.cpu.l1d.prefetcher: Updated AGT entry with:          0
78737000: system.cpu.l1d.prefetcher: Updated AGT entry with:          0
78809000: system.cpu.l1d.prefetcher: Updated AGT entry with:          0
79033000: system.cpu.l1d.prefetcher: Updated AGT entry with:          0
79105000: system.cpu.l1d.prefetcher: Updated AGT entry with:          0
79329000: system.cpu.l1d.prefetcher: Updated AGT entry with:          0
79401000: system.cpu.l1d.prefetcher: Updated AGT entry with:          0
79625000: system.cpu.l1d.prefetcher: Updated AGT entry with:          0
79697000: system.cpu.l1d.prefetcher: INSERTENTRY(): spatio_region:      0X188, pc:   0x401eb7, physical addr:    0xc42c0
79697000: system.cpu.l1d.prefetcher: Created FT entry with:   0x401eb7
79697000: system.cpu.l1d.prefetcher: CONGRATS: SUCCESS in inserting new FT entry found!!
79928000: system.cpu.l1i.prefetcher: INSERTENTRY(): spatio_region:        0X4, pc:   0x402040, physical addr:     0x2040
79928000: system.cpu.l1i.prefetcher: Created FT entry with:   0x402040
79928000: system.cpu.l1i.prefetcher: CONGRATS: SUCCESS in inserting new FT entry found!!
80027000: system.cpu.l1i.prefetcher: INSERTENTRY(): spatio_region:        0X4, pc:   0x402080, physical addr:     0x2080
80027000: system.cpu.l1i.prefetcher: Created FT entry with:   0x402080
80027000: system.cpu.l1i.prefetcher: CONGRATS: SUCCESS in inserting new FT entry found!!
80093000: system.cpu.l1i.prefetcher: INSERTENTRY(): spatio_region:        0X4, pc:   0x4020c0, physical addr:     0x20c0
80093000: system.cpu.l1i.prefetcher: Created FT entry with:   0x4020c0
80093000: system.cpu.l1i.prefetcher: CONGRATS: SUCCESS in inserting new FT entry found!!
80109000: system.cpu.l1i.prefetcher: INSERTENTRY(): spatio_region:        0X4, pc:   0x402100, physical addr:     0x2100
80109000: system.cpu.l1i.prefetcher: Created FT entry with:   0x402100
80109000: system.cpu.l1i.prefetcher: CONGRATS: SUCCESS in inserting new FT entry found!!
91551000: system.cpu.l1i.prefetcher: INSERTENTRY(): spatio_region:        0X4, pc:   0x402140, physical addr:     0x2140
91551000: system.cpu.l1i.prefetcher: Created FT entry with:   0x402140
91551000: system.cpu.l1i.prefetcher: CONGRATS: SUCCESS in inserting new FT entry found!!
434452000: system.cpu.l1i.prefetcher: INSERTENTRY(): spatio_region:        0X4, pc:   0x402180, physical addr:     0x2180
434452000: system.cpu.l1i.prefetcher: Created FT entry with:   0x402180
434452000: system.cpu.l1i.prefetcher: CONGRATS: SUCCESS in inserting new FT entry found!!
434494000: system.cpu.l1i.prefetcher: INSERTENTRY(): spatio_region:       0X20, pc:   0x4104a0, physical addr:    0x10480
434494000: system.cpu.l1i.prefetcher: Created FT entry with:   0x4104a0
434494000: system.cpu.l1i.prefetcher: CONGRATS: SUCCESS in inserting new FT entry found!!
434593000: system.cpu.l1i.prefetcher: INSERTENTRY(): spatio_region:       0X20, pc:   0x410240, physical addr:    0x10240
434593000: system.cpu.l1i.prefetcher: Created FT entry with:   0x410240
434593000: system.cpu.l1i.prefetcher: CONGRATS: SUCCESS in inserting new FT entry found!!
434617000: system.cpu.l1d.prefetcher: INSERTENTRY(): spatio_region:      0X17D, pc:   0x4101fa, physical addr:    0xbefd8
434617000: system.cpu.l1d.prefetcher: Created FT entry with:   0x4101fa
434617000: system.cpu.l1d.prefetcher: CONGRATS: SUCCESS in inserting new FT entry found!!
434657000: system.cpu.l1i.prefetcher: INSERTENTRY(): spatio_region:       0X20, pc:   0x410280, physical addr:    0x10280
434657000: system.cpu.l1i.prefetcher: Created FT entry with:   0x410280
434657000: system.cpu.l1i.prefetcher: CONGRATS: SUCCESS in inserting new FT entry found!!
434731000: system.cpu.l1i.prefetcher: INSERTENTRY(): spatio_region:       0X20, pc:   0x4102c0, physical addr:    0x102c0
434731000: system.cpu.l1i.prefetcher: Created FT entry with:   0x4102c0
434731000: system.cpu.l1i.prefetcher: CONGRATS: SUCCESS in inserting new FT entry found!!
434802000: system.cpu.l1i.prefetcher: INSERTENTRY(): spatio_region:       0X20, pc:   0x410300, physical addr:    0x10300
434802000: system.cpu.l1i.prefetcher: Created FT entry with:   0x410300
434802000: system.cpu.l1i.prefetcher: CONGRATS: SUCCESS in inserting new FT entry found!!
434876000: system.cpu.l1i.prefetcher: INSERTENTRY(): spatio_region:        0X6, pc:   0x403200, physical addr:     0x3200
434876000: system.cpu.l1i.prefetcher: Created FT entry with:   0x403200
434876000: system.cpu.l1i.prefetcher: CONGRATS: SUCCESS in inserting new FT entry found!!
434953000: system.cpu.l1i.prefetcher: INSERTENTRY(): spatio_region:        0X2, pc:   0x4016e0, physical addr:     0x16c0
434953000: system.cpu.l1i.prefetcher: Created FT entry with:   0x4016e0
434953000: system.cpu.l1i.prefetcher: CONGRATS: SUCCESS in inserting new FT entry found!!
435035000: system.cpu.l1d.prefetcher: Updated AGT entry with:          0
435225000: system.cpu.l1i.prefetcher: INSERTENTRY(): spatio_region:      0X124, pc:   0x492440, physical addr:    0x92440
435225000: system.cpu.l1i.prefetcher: Created FT entry with:   0x492440
435225000: system.cpu.l1i.prefetcher: CONGRATS: SUCCESS in inserting new FT entry found!!
435302000: system.cpu.l1i.prefetcher: INSERTENTRY(): spatio_region:      0X124, pc:   0x492480, physical addr:    0x92480
435302000: system.cpu.l1i.prefetcher: Created FT entry with:   0x492480
435302000: system.cpu.l1i.prefetcher: CONGRATS: SUCCESS in inserting new FT entry found!!
435366000: system.cpu.l1i.prefetcher: INSERTENTRY(): spatio_region:      0X124, pc:   0x492310, physical addr:    0x92300
435366000: system.cpu.l1i.prefetcher: Created FT entry with:   0x492310
435366000: system.cpu.l1i.prefetcher: CONGRATS: SUCCESS in inserting new FT entry found!!
435430000: system.cpu.l1i.prefetcher: INSERTENTRY(): spatio_region:      0X124, pc:   0x492340, physical addr:    0x92340
435430000: system.cpu.l1i.prefetcher: Created FT entry with:   0x492340
435430000: system.cpu.l1i.prefetcher: CONGRATS: SUCCESS in inserting new FT entry found!!
435496000: system.cpu.l1i.prefetcher: INSERTENTRY(): spatio_region:      0X124, pc:   0x492380, physical addr:    0x92380
435496000: system.cpu.l1i.prefetcher: Created FT entry with:   0x492380
435496000: system.cpu.l1i.prefetcher: CONGRATS: SUCCESS in inserting new FT entry found!!
435564000: system.cpu.l1i.prefetcher: INSERTENTRY(): spatio_region:      0X124, pc:   0x4923c0, physical addr:    0x923c0
435564000: system.cpu.l1i.prefetcher: Created FT entry with:   0x4923c0
435564000: system.cpu.l1i.prefetcher: CONGRATS: SUCCESS in inserting new FT entry found!!
435633000: system.cpu.l1i.prefetcher: INSERTENTRY(): spatio_region:      0X124, pc:   0x492400, physical addr:    0x92400
435633000: system.cpu.l1i.prefetcher: Created FT entry with:   0x492400
435633000: system.cpu.l1i.prefetcher: CONGRATS: SUCCESS in inserting new FT entry found!!
435725000: system.cpu.l1i.prefetcher: INSERTENTRY(): spatio_region:        0X6, pc:   0x403240, physical addr:     0x3240
435725000: system.cpu.l1i.prefetcher: Created FT entry with:   0x403240
435725000: system.cpu.l1i.prefetcher: CONGRATS: SUCCESS in inserting new FT entry found!!
435789000: system.cpu.l1i.prefetcher: INSERTENTRY(): spatio_region:      0X129, pc:   0x4948e0, physical addr:    0x948c0
435789000: system.cpu.l1i.prefetcher: Created FT entry with:   0x4948e0
435789000: system.cpu.l1i.prefetcher: CONGRATS: SUCCESS in inserting new FT entry found!!
435866000: system.cpu.l1i.prefetcher: INSERTENTRY(): spatio_region:      0X129, pc:   0x494900, physical addr:    0x94900
435866000: system.cpu.l1i.prefetcher: Created FT entry with:   0x494900
435866000: system.cpu.l1i.prefetcher: CONGRATS: SUCCESS in inserting new FT entry found!!
435934000: system.cpu.l1i.prefetcher: INSERTENTRY(): spatio_region:       0X20, pc:   0x410340, physical addr:    0x10340
435934000: system.cpu.l1i.prefetcher: Created FT entry with:   0x410340
435934000: system.cpu.l1i.prefetcher: CONGRATS: SUCCESS in inserting new FT entry found!!
436025000: system.cpu.l1i.prefetcher: INSERTENTRY(): spatio_region:       0X20, pc:   0x410380, physical addr:    0x10380
436025000: system.cpu.l1i.prefetcher: Created FT entry with:   0x410380
436025000: system.cpu.l1i.prefetcher: CONGRATS: SUCCESS in inserting new FT entry found!!
436089000: system.cpu.l1i.prefetcher: INSERTENTRY(): spatio_region:       0X20, pc:   0x4103c0, physical addr:    0x103c0
436089000: system.cpu.l1i.prefetcher: Created FT entry with:   0x4103c0
436089000: system.cpu.l1i.prefetcher: CONGRATS: SUCCESS in inserting new FT entry found!!
436409000: system.cpu.l1i.prefetcher: INSERTENTRY(): spatio_region:       0X20, pc:   0x410400, physical addr:    0x10400
436409000: system.cpu.l1i.prefetcher: Created FT entry with:   0x410400
436409000: system.cpu.l1i.prefetcher: CONGRATS: SUCCESS in inserting new FT entry found!!
436504000: system.cpu.l1i.prefetcher: INSERTENTRY(): spatio_region:       0X20, pc:   0x410440, physical addr:    0x10440
436504000: system.cpu.l1i.prefetcher: Created FT entry with:   0x410440
436504000: system.cpu.l1i.prefetcher: CONGRATS: SUCCESS in inserting new FT entry found!!
436524000: system.cpu.l1d.prefetcher: Updated AGT entry with:          0
436602000: system.cpu.l1i.prefetcher: INSERTENTRY(): spatio_region:       0X31, pc:   0x418bf0, physical addr:    0x18bc0
436602000: system.cpu.l1i.prefetcher: Created FT entry with:   0x418bf0
436602000: system.cpu.l1i.prefetcher: CONGRATS: SUCCESS in inserting new FT entry found!!
436679000: system.cpu.l1i.prefetcher: INSERTENTRY(): spatio_region:       0X31, pc:   0x418c00, physical addr:    0x18c00
436679000: system.cpu.l1i.prefetcher: Created FT entry with:   0x418c00
436679000: system.cpu.l1i.prefetcher: CONGRATS: SUCCESS in inserting new FT entry found!!
436743000: system.cpu.l1i.prefetcher: INSERTENTRY(): spatio_region:       0X31, pc:   0x418c40, physical addr:    0x18c40
436743000: system.cpu.l1i.prefetcher: Created FT entry with:   0x418c40
436743000: system.cpu.l1i.prefetcher: CONGRATS: SUCCESS in inserting new FT entry found!!
436807000: system.cpu.l1i.prefetcher: INSERTENTRY(): spatio_region:       0X31, pc:   0x4188f0, physical addr:    0x188c0
436807000: system.cpu.l1i.prefetcher: Created FT entry with:   0x4188f0
436807000: system.cpu.l1i.prefetcher: CONGRATS: SUCCESS in inserting new FT entry found!!
436871000: system.cpu.l1i.prefetcher: INSERTENTRY(): spatio_region:       0X31, pc:   0x418900, physical addr:    0x18900
436871000: system.cpu.l1i.prefetcher: Created FT entry with:   0x418900
436871000: system.cpu.l1i.prefetcher: CONGRATS: SUCCESS in inserting new FT entry found!!
436935000: system.cpu.l1i.prefetcher: INSERTENTRY(): spatio_region:       0X31, pc:   0x418940, physical addr:    0x18940
436935000: system.cpu.l1i.prefetcher: Created FT entry with:   0x418940
436935000: system.cpu.l1i.prefetcher: CONGRATS: SUCCESS in inserting new FT entry found!!
436999000: system.cpu.l1i.prefetcher: INSERTENTRY(): spatio_region:       0X31, pc:   0x418b20, physical addr:    0x18b00
436999000: system.cpu.l1i.prefetcher: Created FT entry with:   0x418b20
436999000: system.cpu.l1i.prefetcher: CONGRATS: SUCCESS in inserting new FT entry found!!
437063000: system.cpu.l1i.prefetcher: INSERTENTRY(): spatio_region:       0X31, pc:   0x418b40, physical addr:    0x18b40
437063000: system.cpu.l1i.prefetcher: Created FT entry with:   0x418b40
437063000: system.cpu.l1i.prefetcher: CONGRATS: SUCCESS in inserting new FT entry found!!
437131000: system.cpu.l1i.prefetcher: INSERTENTRY(): spatio_region:       0X31, pc:   0x418980, physical addr:    0x18980
437131000: system.cpu.l1i.prefetcher: Created FT entry with:   0x418980
437131000: system.cpu.l1i.prefetcher: CONGRATS: SUCCESS in inserting new FT entry found!!
437136000: system.cpu.l1d.prefetcher: INSERTENTRY(): spatio_region:      0X183, pc:   0x41893e, physical addr:    0xc1c58
437136000: system.cpu.l1d.prefetcher: Created FT entry with:   0x41893e
437136000: system.cpu.l1d.prefetcher: CONGRATS: SUCCESS in inserting new FT entry found!!
437195000: system.cpu.l1i.prefetcher: INSERTENTRY(): spatio_region:       0X31, pc:   0x4189c0, physical addr:    0x189c0
437195000: system.cpu.l1i.prefetcher: Created FT entry with:   0x4189c0
437195000: system.cpu.l1i.prefetcher: CONGRATS: SUCCESS in inserting new FT entry found!!
437229000: system.cpu.l1d.prefetcher: Updated AGT entry with:          0
437259000: system.cpu.l1i.prefetcher: INSERTENTRY(): spatio_region:       0X31, pc:   0x418a44, physical addr:    0x18a40
437259000: system.cpu.l1i.prefetcher: Created FT entry with:   0x418a44
437259000: system.cpu.l1i.prefetcher: CONGRATS: SUCCESS in inserting new FT entry found!!
437323000: system.cpu.l1i.prefetcher: INSERTENTRY(): spatio_region:       0X31, pc:   0x418a80, physical addr:    0x18a80
437323000: system.cpu.l1i.prefetcher: Created FT entry with:   0x418a80
437323000: system.cpu.l1i.prefetcher: CONGRATS: SUCCESS in inserting new FT entry found!!
437331000: system.cpu.l1d.prefetcher: Updated AGT entry with:          0
437389000: system.cpu.l1i.prefetcher: INSERTENTRY(): spatio_region:       0X31, pc:   0x418ac0, physical addr:    0x18ac0
437389000: system.cpu.l1i.prefetcher: Created FT entry with:   0x418ac0
437389000: system.cpu.l1i.prefetcher: CONGRATS: SUCCESS in inserting new FT entry found!!
437393000: system.cpu.l1d.prefetcher: Updated AGT entry with:          0
437466000: system.cpu.l1i.prefetcher: INSERTENTRY(): spatio_region:       0X31, pc:   0x418a00, physical addr:    0x18a00
437466000: system.cpu.l1i.prefetcher: Created FT entry with:   0x418a00
437466000: system.cpu.l1i.prefetcher: CONGRATS: SUCCESS in inserting new FT entry found!!
437538000: system.cpu.l1d.prefetcher: Updated AGT entry with:          0
437604000: system.cpu.l1d.prefetcher: Updated AGT entry with:          0
437667000: system.cpu.l1d.prefetcher: Updated AGT entry with:          0
437730000: system.cpu.l1d.prefetcher: Updated AGT entry with:          0
437731000: system.cpu.l1d.prefetcher: Updated AGT entry with:          0
437821000: system.cpu.l1d.prefetcher: Updated AGT entry with:          0
437887000: system.cpu.l1d.prefetcher: Updated AGT entry with:          0
437950000: system.cpu.l1d.prefetcher: Updated AGT entry with:          0
438044000: system.cpu.l1d.prefetcher: INSERTENTRY(): spatio_region:      0X17E, pc:   0x418a3b, physical addr:    0xbf568
438044000: system.cpu.l1d.prefetcher: Created FT entry with:   0x418a3b
438044000: system.cpu.l1d.prefetcher: CONGRATS: SUCCESS in inserting new FT entry found!!
438138000: system.cpu.l1i.prefetcher: INSERTENTRY(): spatio_region:       0X31, pc:   0x418b80, physical addr:    0x18b80
438138000: system.cpu.l1i.prefetcher: Created FT entry with:   0x418b80
438138000: system.cpu.l1i.prefetcher: CONGRATS: SUCCESS in inserting new FT entry found!!
438242000: system.cpu.l1i.prefetcher: INSERTENTRY(): spatio_region:       0X31, pc:   0x418c80, physical addr:    0x18c80
438242000: system.cpu.l1i.prefetcher: Created FT entry with:   0x418c80
438242000: system.cpu.l1i.prefetcher: CONGRATS: SUCCESS in inserting new FT entry found!!
438306000: system.cpu.l1i.prefetcher: INSERTENTRY(): spatio_region:       0X31, pc:   0x418e68, physical addr:    0x18e40
438306000: system.cpu.l1i.prefetcher: Created FT entry with:   0x418e68
438306000: system.cpu.l1i.prefetcher: CONGRATS: SUCCESS in inserting new FT entry found!!
438383000: system.cpu.l1i.prefetcher: INSERTENTRY(): spatio_region:       0X31, pc:   0x418e80, physical addr:    0x18e80
438383000: system.cpu.l1i.prefetcher: Created FT entry with:   0x418e80
438383000: system.cpu.l1i.prefetcher: CONGRATS: SUCCESS in inserting new FT entry found!!
438447000: system.cpu.l1i.prefetcher: INSERTENTRY(): spatio_region:       0X31, pc:   0x418ec0, physical addr:    0x18ec0
438447000: system.cpu.l1i.prefetcher: Created FT entry with:   0x418ec0
438447000: system.cpu.l1i.prefetcher: CONGRATS: SUCCESS in inserting new FT entry found!!
438517000: system.cpu.l1i.prefetcher: INSERTENTRY(): spatio_region:       0X31, pc:   0x418cc0, physical addr:    0x18cc0
438517000: system.cpu.l1i.prefetcher: Created FT entry with:   0x418cc0
438517000: system.cpu.l1i.prefetcher: CONGRATS: SUCCESS in inserting new FT entry found!!
438585000: system.cpu.l1i.prefetcher: INSERTENTRY(): spatio_region:       0X31, pc:   0x418d00, physical addr:    0x18d00
438585000: system.cpu.l1i.prefetcher: Created FT entry with:   0x418d00
438585000: system.cpu.l1i.prefetcher: CONGRATS: SUCCESS in inserting new FT entry found!!
438656000: system.cpu.l1i.prefetcher: INSERTENTRY(): spatio_region:       0X31, pc:   0x418d40, physical addr:    0x18d40
438656000: system.cpu.l1i.prefetcher: Created FT entry with:   0x418d40
438656000: system.cpu.l1i.prefetcher: CONGRATS: SUCCESS in inserting new FT entry found!!
438738000: system.cpu.l1d.prefetcher: INSERTENTRY(): spatio_region:      0X17E, pc:   0x418cc8, physical addr:    0xbf588
438738000: system.cpu.l1d.prefetcher: Created FT entry with:   0x418cc8
438738000: system.cpu.l1d.prefetcher: CONGRATS: SUCCESS in inserting new FT entry found!!
438811000: system.cpu.l1i.prefetcher: INSERTENTRY(): spatio_region:       0X31, pc:   0x418dc0, physical addr:    0x18dc0
438811000: system.cpu.l1i.prefetcher: Created FT entry with:   0x418dc0
438811000: system.cpu.l1i.prefetcher: CONGRATS: SUCCESS in inserting new FT entry found!!
438875000: system.cpu.l1i.prefetcher: INSERTENTRY(): spatio_region:       0X31, pc:   0x418e00, physical addr:    0x18e00
438875000: system.cpu.l1i.prefetcher: Created FT entry with:   0x418e00
438875000: system.cpu.l1i.prefetcher: CONGRATS: SUCCESS in inserting new FT entry found!!
438970000: system.cpu.l1i.prefetcher: INSERTENTRY(): spatio_region:       0X31, pc:   0x418f00, physical addr:    0x18f00
438970000: system.cpu.l1i.prefetcher: Created FT entry with:   0x418f00
438970000: system.cpu.l1i.prefetcher: CONGRATS: SUCCESS in inserting new FT entry found!!
439050000: system.cpu.l1i.prefetcher: INSERTENTRY(): spatio_region:       0X90, pc:   0x448190, physical addr:    0x48180
439050000: system.cpu.l1i.prefetcher: Created FT entry with:   0x448190
439050000: system.cpu.l1i.prefetcher: CONGRATS: SUCCESS in inserting new FT entry found!!
439127000: system.cpu.l1i.prefetcher: INSERTENTRY(): spatio_region:       0X90, pc:   0x4481c0, physical addr:    0x481c0
439127000: system.cpu.l1i.prefetcher: Created FT entry with:   0x4481c0
439127000: system.cpu.l1i.prefetcher: CONGRATS: SUCCESS in inserting new FT entry found!!
439195000: system.cpu.l1i.prefetcher: INSERTENTRY(): spatio_region:       0X90, pc:   0x448200, physical addr:    0x48200
439195000: system.cpu.l1i.prefetcher: Created FT entry with:   0x448200
439195000: system.cpu.l1i.prefetcher: CONGRATS: SUCCESS in inserting new FT entry found!!
Exit Eventexiting with last active thread context
Dump stats at the end of the ROI!
