gem5 Simulator System.  http://gem5.org
gem5 is copyrighted software; use the --copyright option for details.

gem5 version 20.1.0.2
gem5 compiled Dec 10 2021 07:18:28
gem5 started Dec 10 2021 07:23:07
gem5 executing on ARCH-750, pid 1094369
command line: /data/home/ycc32/450_project/gem5/build/X86/gem5.opt --debug-flags=HWPrefetch -re --outdir=/data/home/ycc32/450_project/gem5/results/X86/run_micro/DP1f/Minor4/Slow/DDR3_2133_8x8/1GHz gem5-config/run_micro.py Minor4 Slow microbenchmark/DP1f/bench.X86 DDR3_2133_8x8 --clock=1GHz

1GHz CPU speed and DRAM = DDR3_2133_8x8
system.py: init L2 cache with size 1MB
Global frequency set at 1000000000000 ticks per second
   1000: system.cpu.l1i.prefetcher: Hello World from HMM model
  79000: system.cpu.l1i.prefetcher: Hello World from HMM model
  82000: system.cpu.l1d.prefetcher: Hello World from HMM model
 143000: system.cpu.l1i.prefetcher: Hello World from HMM model
 163000: system.cpu.l1d.prefetcher: Hello World from HMM model
 166000: system.cpu.l1d.prefetcher: Hello World from HMM model
 207000: system.cpu.l1i.prefetcher: Hello World from HMM model
 284000: system.cpu.l1i.prefetcher: Hello World from HMM model
 304000: system.cpu.l1d.prefetcher: Hello World from HMM model
 307000: system.cpu.l1d.prefetcher: Hello World from HMM model
 348000: system.cpu.l1i.prefetcher: Hello World from HMM model
 416000: system.cpu.l1i.prefetcher: Hello World from HMM model
 420000: system.cpu.l1d.prefetcher: Hello World from HMM model
 484000: system.cpu.l1i.prefetcher: Hello World from HMM model
 582000: system.cpu.l1i.prefetcher: Hello World from HMM model
 586000: system.cpu.l1d.prefetcher: Hello World from HMM model
 589000: system.cpu.l1d.prefetcher: Hello World from HMM model
 646000: system.cpu.l1i.prefetcher: Hello World from HMM model
 710000: system.cpu.l1i.prefetcher: Hello World from HMM model
 787000: system.cpu.l1i.prefetcher: Hello World from HMM model
 794000: system.cpu.l1d.prefetcher: Hello World from HMM model
 800000: system.cpu.l1d.prefetcher: Hello World from HMM model
 851000: system.cpu.l1i.prefetcher: Hello World from HMM model
 866000: system.cpu.l1d.prefetcher: Hello World from HMM model
 915000: system.cpu.l1i.prefetcher: Hello World from HMM model
 931000: system.cpu.l1d.prefetcher: Hello World from HMM model
 979000: system.cpu.l1i.prefetcher: Hello World from HMM model
 995000: system.cpu.l1d.prefetcher: Hello World from HMM model
1058000: system.cpu.l1d.prefetcher: Hello World from HMM model
1123000: system.cpu.l1d.prefetcher: Hello World from HMM model
1124000: system.cpu.l1d.prefetcher: Hello World from HMM model
1192000: system.cpu.l1d.prefetcher: Hello World from HMM model
1193000: system.cpu.l1i.prefetcher: Hello World from HMM model
1286000: system.cpu.l1i.prefetcher: Hello World from HMM model
1291000: system.cpu.l1d.prefetcher: Hello World from HMM model
1292000: system.cpu.l1d.prefetcher: Hello World from HMM model
1356000: system.cpu.l1d.prefetcher: Hello World from HMM model
1435000: system.cpu.l1i.prefetcher: Hello World from HMM model
1499000: system.cpu.l1i.prefetcher: Hello World from HMM model
1572000: system.cpu.l1d.prefetcher: Hello World from HMM model
1638000: system.cpu.l1i.prefetcher: Hello World from HMM model
1702000: system.cpu.l1i.prefetcher: Hello World from HMM model
1711000: system.cpu.l1d.prefetcher: Hello World from HMM model
1766000: system.cpu.l1i.prefetcher: Hello World from HMM model
1845000: system.cpu.l1i.prefetcher: Hello World from HMM model
1909000: system.cpu.l1i.prefetcher: Hello World from HMM model
1973000: system.cpu.l1i.prefetcher: Hello World from HMM model
2052000: system.cpu.l1i.prefetcher: Hello World from HMM model
2149000: system.cpu.l1i.prefetcher: Hello World from HMM model
2247000: system.cpu.l1d.prefetcher: Hello World from HMM model
2253000: system.cpu.l1i.prefetcher: Hello World from HMM model
2344000: system.cpu.l1i.prefetcher: Hello World from HMM model
2496000: system.cpu.l1d.prefetcher: Hello World from HMM model
2684000: system.cpu.l1d.prefetcher: Hello World from HMM model
2886000: system.cpu.l1d.prefetcher: Hello World from HMM model
2978000: system.cpu.l1i.prefetcher: Hello World from HMM model
3189000: system.cpu.l1i.prefetcher: Hello World from HMM model
3253000: system.cpu.l1i.prefetcher: Hello World from HMM model
3317000: system.cpu.l1i.prefetcher: Hello World from HMM model
3395000: system.cpu.l1i.prefetcher: Hello World from HMM model
3472000: system.cpu.l1i.prefetcher: Hello World from HMM model
3536000: system.cpu.l1i.prefetcher: Hello World from HMM model
3600000: system.cpu.l1i.prefetcher: Hello World from HMM model
3664000: system.cpu.l1i.prefetcher: Hello World from HMM model
3736000: system.cpu.l1d.prefetcher: Hello World from HMM model
3750000: system.cpu.l1d.prefetcher: Hello World from HMM model
3758000: system.cpu.l1i.prefetcher: Hello World from HMM model
3799000: system.cpu.l1d.prefetcher: Hello World from HMM model
3822000: system.cpu.l1i.prefetcher: Hello World from HMM model
3886000: system.cpu.l1i.prefetcher: Hello World from HMM model
3950000: system.cpu.l1i.prefetcher: Hello World from HMM model
4014000: system.cpu.l1i.prefetcher: Hello World from HMM model
4078000: system.cpu.l1i.prefetcher: Hello World from HMM model
4157000: system.cpu.l1i.prefetcher: Hello World from HMM model
4248000: system.cpu.l1i.prefetcher: Hello World from HMM model
4314000: system.cpu.l1i.prefetcher: Hello World from HMM model
4378000: system.cpu.l1i.prefetcher: Hello World from HMM model
4446000: system.cpu.l1i.prefetcher: Hello World from HMM model
4514000: system.cpu.l1i.prefetcher: Hello World from HMM model
4578000: system.cpu.l1i.prefetcher: Hello World from HMM model
4642000: system.cpu.l1i.prefetcher: Hello World from HMM model
4719000: system.cpu.l1i.prefetcher: Hello World from HMM model
4824000: system.cpu.l1i.prefetcher: Hello World from HMM model
4888000: system.cpu.l1i.prefetcher: Hello World from HMM model
4896000: system.cpu.l1d.prefetcher: Hello World from HMM model
4958000: system.cpu.l1d.prefetcher: Hello World from HMM model
5090000: system.cpu.l1d.prefetcher: Hello World from HMM model
5180000: system.cpu.l1d.prefetcher: Hello World from HMM model
5268000: system.cpu.l1d.prefetcher: Hello World from HMM model
5285000: system.cpu.l1d.prefetcher: Hello World from HMM model
5438000: system.cpu.l1d.prefetcher: Hello World from HMM model
5584000: system.cpu.l1d.prefetcher: Hello World from HMM model
5659000: system.cpu.l1d.prefetcher: Hello World from HMM model
5785000: system.cpu.l1d.prefetcher: Hello World from HMM model
5799000: system.cpu.l1i.prefetcher: Hello World from HMM model
5894000: system.cpu.l1i.prefetcher: Hello World from HMM model
5985000: system.cpu.l1i.prefetcher: Hello World from HMM model
6049000: system.cpu.l1i.prefetcher: Hello World from HMM model
6122000: system.cpu.l1d.prefetcher: Hello World from HMM model
6135000: system.cpu.l1d.prefetcher: Hello World from HMM model
6227000: system.cpu.l1i.prefetcher: Hello World from HMM model
6318000: system.cpu.l1i.prefetcher: Hello World from HMM model
6382000: system.cpu.l1i.prefetcher: Hello World from HMM model
6474000: system.cpu.l1i.prefetcher: Hello World from HMM model
6551000: system.cpu.l1i.prefetcher: Hello World from HMM model
6643000: system.cpu.l1i.prefetcher: Hello World from HMM model
6733000: system.cpu.l1d.prefetcher: Hello World from HMM model
6734000: system.cpu.l1d.prefetcher: Hello World from HMM model
6839000: system.cpu.l1i.prefetcher: Hello World from HMM model
6930000: system.cpu.l1i.prefetcher: Hello World from HMM model
6994000: system.cpu.l1i.prefetcher: Hello World from HMM model
7062000: system.cpu.l1i.prefetcher: Hello World from HMM model
7128000: system.cpu.l1i.prefetcher: Hello World from HMM model
7220000: system.cpu.l1i.prefetcher: Hello World from HMM model
7284000: system.cpu.l1i.prefetcher: Hello World from HMM model
7348000: system.cpu.l1i.prefetcher: Hello World from HMM model
7416000: system.cpu.l1i.prefetcher: Hello World from HMM model
7512000: system.cpu.l1i.prefetcher: Hello World from HMM model
7613000: system.cpu.l1d.prefetcher: Hello World from HMM model
7614000: system.cpu.l1d.prefetcher: Hello World from HMM model
7718000: system.cpu.l1i.prefetcher: Hello World from HMM model
7795000: system.cpu.l1i.prefetcher: Hello World from HMM model
8125000: system.cpu.l1i.prefetcher: Hello World from HMM model
8217000: system.cpu.l1i.prefetcher: Hello World from HMM model
8294000: system.cpu.l1i.prefetcher: Hello World from HMM model
8405000: system.cpu.l1d.prefetcher: Hello World from HMM model
8483000: system.cpu.l1i.prefetcher: Hello World from HMM model
8608000: system.cpu.l1i.prefetcher: Hello World from HMM model
8672000: system.cpu.l1i.prefetcher: Hello World from HMM model
8740000: system.cpu.l1i.prefetcher: Hello World from HMM model
8832000: system.cpu.l1i.prefetcher: Hello World from HMM model
8896000: system.cpu.l1i.prefetcher: Hello World from HMM model
8960000: system.cpu.l1i.prefetcher: Hello World from HMM model
9033000: system.cpu.l1d.prefetcher: Hello World from HMM model
9034000: system.cpu.l1d.prefetcher: Hello World from HMM model
9135000: system.cpu.l1i.prefetcher: Hello World from HMM model
9230000: system.cpu.l1i.prefetcher: Hello World from HMM model
9322000: system.cpu.l1i.prefetcher: Hello World from HMM model
9397000: system.cpu.l1i.prefetcher: Hello World from HMM model
9489000: system.cpu.l1i.prefetcher: Hello World from HMM model
9566000: system.cpu.l1i.prefetcher: Hello World from HMM model
9630000: system.cpu.l1i.prefetcher: Hello World from HMM model
9704000: system.cpu.l1d.prefetcher: Hello World from HMM model
9705000: system.cpu.l1d.prefetcher: Hello World from HMM model
9809000: system.cpu.l1i.prefetcher: Hello World from HMM model
9873000: system.cpu.l1i.prefetcher: Hello World from HMM model
9937000: system.cpu.l1i.prefetcher: Hello World from HMM model
10083000: system.cpu.l1d.prefetcher: Hello World from HMM model
10148000: system.cpu.l1i.prefetcher: Hello World from HMM model
10212000: system.cpu.l1i.prefetcher: Hello World from HMM model
10276000: system.cpu.l1i.prefetcher: Hello World from HMM model
10368000: system.cpu.l1i.prefetcher: Hello World from HMM model
10432000: system.cpu.l1i.prefetcher: Hello World from HMM model
10496000: system.cpu.l1i.prefetcher: Hello World from HMM model
10592000: system.cpu.l1i.prefetcher: Hello World from HMM model
10660000: system.cpu.l1i.prefetcher: Hello World from HMM model
10751000: system.cpu.l1d.prefetcher: Hello World from HMM model
10752000: system.cpu.l1d.prefetcher: Hello World from HMM model
10852000: system.cpu.l1i.prefetcher: Hello World from HMM model
10949000: system.cpu.l1i.prefetcher: Hello World from HMM model
11090000: system.cpu.l1i.prefetcher: Hello World from HMM model
11183000: system.cpu.l1d.prefetcher: Hello World from HMM model
11184000: system.cpu.l1d.prefetcher: Hello World from HMM model
11308000: system.cpu.l1i.prefetcher: Hello World from HMM model
11399000: system.cpu.l1i.prefetcher: Hello World from HMM model
11463000: system.cpu.l1i.prefetcher: Hello World from HMM model
11527000: system.cpu.l1i.prefetcher: Hello World from HMM model
11552000: system.cpu.l1d.prefetcher: Hello World from HMM model
11591000: system.cpu.l1i.prefetcher: Hello World from HMM model
11658000: system.cpu.l1i.prefetcher: Hello World from HMM model
11659000: system.cpu.l1d.prefetcher: Hello World from HMM model
11722000: system.cpu.l1i.prefetcher: Hello World from HMM model
11798000: system.cpu.l1d.prefetcher: Hello World from HMM model
11799000: system.cpu.l1d.prefetcher: Hello World from HMM model
11800000: system.cpu.l1i.prefetcher: Hello World from HMM model
11878000: system.cpu.l1d.prefetcher: Hello World from HMM model
11879000: system.cpu.l1d.prefetcher: Hello World from HMM model
11949000: system.cpu.l1d.prefetcher: Hello World from HMM model
11950000: system.cpu.l1d.prefetcher: Hello World from HMM model
12020000: system.cpu.l1d.prefetcher: Hello World from HMM model
12021000: system.cpu.l1d.prefetcher: Hello World from HMM model
12091000: system.cpu.l1d.prefetcher: Hello World from HMM model
12092000: system.cpu.l1d.prefetcher: Hello World from HMM model
12162000: system.cpu.l1d.prefetcher: Hello World from HMM model
12229000: system.cpu.l1d.prefetcher: Hello World from HMM model
12392000: system.cpu.l1i.prefetcher: Hello World from HMM model
12456000: system.cpu.l1i.prefetcher: Hello World from HMM model
12533000: system.cpu.l1i.prefetcher: Hello World from HMM model
12544000: system.cpu.l1d.prefetcher: Hello World from HMM model
12597000: system.cpu.l1i.prefetcher: Hello World from HMM model
12665000: system.cpu.l1i.prefetcher: Hello World from HMM model
12729000: system.cpu.l1i.prefetcher: Hello World from HMM model
12793000: system.cpu.l1i.prefetcher: Hello World from HMM model
12861000: system.cpu.l1i.prefetcher: Hello World from HMM model
12935000: system.cpu.l1i.prefetcher: Hello World from HMM model
13050000: system.cpu.l1i.prefetcher: Hello World from HMM model
13123000: system.cpu.l1i.prefetcher: Hello World from HMM model
13196000: system.cpu.l1d.prefetcher: Hello World from HMM model
13250000: system.cpu.l1i.prefetcher: Hello World from HMM model
13277000: system.cpu.l1d.prefetcher: Hello World from HMM model
13278000: system.cpu.l1d.prefetcher: Hello World from HMM model
13314000: system.cpu.l1i.prefetcher: Hello World from HMM model
13340000: system.cpu.l1d.prefetcher: Hello World from HMM model
13405000: system.cpu.l1i.prefetcher: Hello World from HMM model
13469000: system.cpu.l1i.prefetcher: Hello World from HMM model
13560000: system.cpu.l1i.prefetcher: Hello World from HMM model
13569000: system.cpu.l1d.prefetcher: Hello World from HMM model
13570000: system.cpu.l1d.prefetcher: Hello World from HMM model
13624000: system.cpu.l1i.prefetcher: Hello World from HMM model
13693000: system.cpu.l1i.prefetcher: Hello World from HMM model
13694000: system.cpu.l1d.prefetcher: Hello World from HMM model
13695000: system.cpu.l1d.prefetcher: Hello World from HMM model
13783000: system.cpu.l1i.prefetcher: Hello World from HMM model
13786000: system.cpu.l1d.prefetcher: Hello World from HMM model
13789000: system.cpu.l1d.prefetcher: Hello World from HMM model
13856000: system.cpu.l1i.prefetcher: Hello World from HMM model
13934000: system.cpu.l1d.prefetcher: Hello World from HMM model
13943000: system.cpu.l1d.prefetcher: Hello World from HMM model
13943000: system.cpu.l1i.prefetcher: Hello World from HMM model
14000000: system.cpu.l1d.prefetcher: Hello World from HMM model
14035000: system.cpu.l1i.prefetcher: Hello World from HMM model
14103000: system.cpu.l1i.prefetcher: Hello World from HMM model
14109000: system.cpu.l1d.prefetcher: Hello World from HMM model
14167000: system.cpu.l1i.prefetcher: Hello World from HMM model
14231000: system.cpu.l1i.prefetcher: Hello World from HMM model
14308000: system.cpu.l1i.prefetcher: Hello World from HMM model
14399000: system.cpu.l1i.prefetcher: Hello World from HMM model
14463000: system.cpu.l1i.prefetcher: Hello World from HMM model
14470000: system.cpu.l1d.prefetcher: Hello World from HMM model
14527000: system.cpu.l1i.prefetcher: Hello World from HMM model
14591000: system.cpu.l1i.prefetcher: Hello World from HMM model
14660000: system.cpu.l1i.prefetcher: Hello World from HMM model
14729000: system.cpu.l1i.prefetcher: Hello World from HMM model
14732000: system.cpu.l1d.prefetcher: Hello World from HMM model
14802000: system.cpu.l1i.prefetcher: Hello World from HMM model
14970000: system.cpu.l1i.prefetcher: Hello World from HMM model
15060000: system.cpu.l1i.prefetcher: Hello World from HMM model
15130000: system.cpu.l1i.prefetcher: Hello World from HMM model
15131000: system.cpu.l1d.prefetcher: Hello World from HMM model
15216000: system.cpu.l1i.prefetcher: Hello World from HMM model
15298000: system.cpu.l1i.prefetcher: Hello World from HMM model
15364000: system.cpu.l1i.prefetcher: Hello World from HMM model
15369000: system.cpu.l1d.prefetcher: Hello World from HMM model
15428000: system.cpu.l1i.prefetcher: Hello World from HMM model
15536000: system.cpu.l1d.prefetcher: Hello World from HMM model
15539000: system.cpu.l1i.prefetcher: Hello World from HMM model
15616000: system.cpu.l1i.prefetcher: Hello World from HMM model
15927000: system.cpu.l1i.prefetcher: Hello World from HMM model
15928000: system.cpu.l1d.prefetcher: Hello World from HMM model
15991000: system.cpu.l1i.prefetcher: Hello World from HMM model
16074000: system.cpu.l1i.prefetcher: Hello World from HMM model
16158000: system.cpu.l1d.prefetcher: Hello World from HMM model
16395000: system.cpu.l1i.prefetcher: Hello World from HMM model
16459000: system.cpu.l1i.prefetcher: Hello World from HMM model
16536000: system.cpu.l1i.prefetcher: Hello World from HMM model
16542000: system.cpu.l1d.prefetcher: Hello World from HMM model
16600000: system.cpu.l1i.prefetcher: Hello World from HMM model
16635000: system.cpu.l1d.prefetcher: Hello World from HMM model
16636000: system.cpu.l1d.prefetcher: Hello World from HMM model
16691000: system.cpu.l1i.prefetcher: Hello World from HMM model
16755000: system.cpu.l1i.prefetcher: Hello World from HMM model
16819000: system.cpu.l1i.prefetcher: Hello World from HMM model
16883000: system.cpu.l1i.prefetcher: Hello World from HMM model
16888000: system.cpu.l1d.prefetcher: Hello World from HMM model
16947000: system.cpu.l1i.prefetcher: Hello World from HMM model
17038000: system.cpu.l1i.prefetcher: Hello World from HMM model
17102000: system.cpu.l1i.prefetcher: Hello World from HMM model
17166000: system.cpu.l1i.prefetcher: Hello World from HMM model
17230000: system.cpu.l1i.prefetcher: Hello World from HMM model
17294000: system.cpu.l1i.prefetcher: Hello World from HMM model
17302000: system.cpu.l1d.prefetcher: Hello World from HMM model
17311000: system.cpu.l1d.prefetcher: Hello World from HMM model
17362000: system.cpu.l1i.prefetcher: Hello World from HMM model
17377000: system.cpu.l1d.prefetcher: Hello World from HMM model
17459000: system.cpu.l1i.prefetcher: Hello World from HMM model
17536000: system.cpu.l1d.prefetcher: Hello World from HMM model
17537000: system.cpu.l1d.prefetcher: Hello World from HMM model
17667000: system.cpu.l1d.prefetcher: Hello World from HMM model
17668000: system.cpu.l1d.prefetcher: Hello World from HMM model
17771000: system.cpu.l1d.prefetcher: Hello World from HMM model
17772000: system.cpu.l1d.prefetcher: Hello World from HMM model
17875000: system.cpu.l1d.prefetcher: Hello World from HMM model
17876000: system.cpu.l1d.prefetcher: Hello World from HMM model
17979000: system.cpu.l1d.prefetcher: Hello World from HMM model
17980000: system.cpu.l1d.prefetcher: Hello World from HMM model
18083000: system.cpu.l1d.prefetcher: Hello World from HMM model
18084000: system.cpu.l1d.prefetcher: Hello World from HMM model
18187000: system.cpu.l1d.prefetcher: Hello World from HMM model
18188000: system.cpu.l1d.prefetcher: Hello World from HMM model
18291000: system.cpu.l1d.prefetcher: Hello World from HMM model
18292000: system.cpu.l1d.prefetcher: Hello World from HMM model
18395000: system.cpu.l1d.prefetcher: Hello World from HMM model
18396000: system.cpu.l1d.prefetcher: Hello World from HMM model
18499000: system.cpu.l1d.prefetcher: Hello World from HMM model
18500000: system.cpu.l1d.prefetcher: Hello World from HMM model
18603000: system.cpu.l1d.prefetcher: Hello World from HMM model
18604000: system.cpu.l1d.prefetcher: Hello World from HMM model
18707000: system.cpu.l1d.prefetcher: Hello World from HMM model
18708000: system.cpu.l1d.prefetcher: Hello World from HMM model
18811000: system.cpu.l1d.prefetcher: Hello World from HMM model
18812000: system.cpu.l1d.prefetcher: Hello World from HMM model
18915000: system.cpu.l1d.prefetcher: Hello World from HMM model
18916000: system.cpu.l1d.prefetcher: Hello World from HMM model
19019000: system.cpu.l1d.prefetcher: Hello World from HMM model
19020000: system.cpu.l1d.prefetcher: Hello World from HMM model
19123000: system.cpu.l1d.prefetcher: Hello World from HMM model
19124000: system.cpu.l1d.prefetcher: Hello World from HMM model
19227000: system.cpu.l1d.prefetcher: Hello World from HMM model
19228000: system.cpu.l1d.prefetcher: Hello World from HMM model
19344000: system.cpu.l1d.prefetcher: Hello World from HMM model
19345000: system.cpu.l1d.prefetcher: Hello World from HMM model
19448000: system.cpu.l1d.prefetcher: Hello World from HMM model
19449000: system.cpu.l1d.prefetcher: Hello World from HMM model
19552000: system.cpu.l1d.prefetcher: Hello World from HMM model
19553000: system.cpu.l1d.prefetcher: Hello World from HMM model
19656000: system.cpu.l1d.prefetcher: Hello World from HMM model
19657000: system.cpu.l1d.prefetcher: Hello World from HMM model
19760000: system.cpu.l1d.prefetcher: Hello World from HMM model
19761000: system.cpu.l1d.prefetcher: Hello World from HMM model
19864000: system.cpu.l1d.prefetcher: Hello World from HMM model
19865000: system.cpu.l1d.prefetcher: Hello World from HMM model
19968000: system.cpu.l1d.prefetcher: Hello World from HMM model
19969000: system.cpu.l1d.prefetcher: Hello World from HMM model
20072000: system.cpu.l1d.prefetcher: Hello World from HMM model
20073000: system.cpu.l1d.prefetcher: Hello World from HMM model
20176000: system.cpu.l1d.prefetcher: Hello World from HMM model
20177000: system.cpu.l1d.prefetcher: Hello World from HMM model
20280000: system.cpu.l1d.prefetcher: Hello World from HMM model
20281000: system.cpu.l1d.prefetcher: Hello World from HMM model
20384000: system.cpu.l1d.prefetcher: Hello World from HMM model
20385000: system.cpu.l1d.prefetcher: Hello World from HMM model
20488000: system.cpu.l1d.prefetcher: Hello World from HMM model
20489000: system.cpu.l1d.prefetcher: Hello World from HMM model
20592000: system.cpu.l1d.prefetcher: Hello World from HMM model
20593000: system.cpu.l1d.prefetcher: Hello World from HMM model
20696000: system.cpu.l1d.prefetcher: Hello World from HMM model
20697000: system.cpu.l1d.prefetcher: Hello World from HMM model
20791000: system.cpu.l1i.prefetcher: Hello World from HMM model
20892000: system.cpu.l1d.prefetcher: Hello World from HMM model
20990000: system.cpu.l1d.prefetcher: Hello World from HMM model
21094000: system.cpu.l1d.prefetcher: Hello World from HMM model
21213000: system.cpu.l1i.prefetcher: Hello World from HMM model
21314000: system.cpu.l1d.prefetcher: Hello World from HMM model
21456000: system.cpu.l1d.prefetcher: Hello World from HMM model
21590000: system.cpu.l1d.prefetcher: Hello World from HMM model
21710000: system.cpu.l1i.prefetcher: Hello World from HMM model
21811000: system.cpu.l1d.prefetcher: Hello World from HMM model
21953000: system.cpu.l1d.prefetcher: Hello World from HMM model
22088000: system.cpu.l1d.prefetcher: Hello World from HMM model
22151000: system.cpu.l1d.prefetcher: Hello World from HMM model
22271000: system.cpu.l1i.prefetcher: Hello World from HMM model
22372000: system.cpu.l1d.prefetcher: Hello World from HMM model
22605000: system.cpu.l1d.prefetcher: Hello World from HMM model
22739000: system.cpu.l1d.prefetcher: Hello World from HMM model
22802000: system.cpu.l1d.prefetcher: Hello World from HMM model
22920000: system.cpu.l1i.prefetcher: Hello World from HMM model
23015000: system.cpu.l1i.prefetcher: Hello World from HMM model
23086000: system.cpu.l1i.prefetcher: Hello World from HMM model
23152000: system.cpu.l1i.prefetcher: Hello World from HMM model
23245000: system.cpu.l1i.prefetcher: Hello World from HMM model
23322000: system.cpu.l1i.prefetcher: Hello World from HMM model
23386000: system.cpu.l1i.prefetcher: Hello World from HMM model
23699000: system.cpu.l1i.prefetcher: Hello World from HMM model
23763000: system.cpu.l1i.prefetcher: Hello World from HMM model
23778000: system.cpu.l1d.prefetcher: Hello World from HMM model
23781000: system.cpu.l1d.prefetcher: Hello World from HMM model
23827000: system.cpu.l1i.prefetcher: Hello World from HMM model
23891000: system.cpu.l1i.prefetcher: Hello World from HMM model
23955000: system.cpu.l1i.prefetcher: Hello World from HMM model
24019000: system.cpu.l1i.prefetcher: Hello World from HMM model
24085000: system.cpu.l1i.prefetcher: Hello World from HMM model
24149000: system.cpu.l1i.prefetcher: Hello World from HMM model
24213000: system.cpu.l1i.prefetcher: Hello World from HMM model
24219000: system.cpu.l1d.prefetcher: Hello World from HMM model
24277000: system.cpu.l1i.prefetcher: Hello World from HMM model
24341000: system.cpu.l1i.prefetcher: Hello World from HMM model
24349000: system.cpu.l1d.prefetcher: Hello World from HMM model
24409000: system.cpu.l1i.prefetcher: Hello World from HMM model
24473000: system.cpu.l1i.prefetcher: Hello World from HMM model
24537000: system.cpu.l1i.prefetcher: Hello World from HMM model
24605000: system.cpu.l1i.prefetcher: Hello World from HMM model
24612000: system.cpu.l1d.prefetcher: Hello World from HMM model
24669000: system.cpu.l1i.prefetcher: Hello World from HMM model
24746000: system.cpu.l1i.prefetcher: Hello World from HMM model
24810000: system.cpu.l1i.prefetcher: Hello World from HMM model
24876000: system.cpu.l1i.prefetcher: Hello World from HMM model
24940000: system.cpu.l1i.prefetcher: Hello World from HMM model
25004000: system.cpu.l1i.prefetcher: Hello World from HMM model
25068000: system.cpu.l1i.prefetcher: Hello World from HMM model
25132000: system.cpu.l1i.prefetcher: Hello World from HMM model
25145000: system.cpu.l1d.prefetcher: Hello World from HMM model
25148000: system.cpu.l1d.prefetcher: Hello World from HMM model
25196000: system.cpu.l1i.prefetcher: Hello World from HMM model
25211000: system.cpu.l1d.prefetcher: Hello World from HMM model
25260000: system.cpu.l1i.prefetcher: Hello World from HMM model
25290000: system.cpu.l1d.prefetcher: Hello World from HMM model
25328000: system.cpu.l1i.prefetcher: Hello World from HMM model
25392000: system.cpu.l1i.prefetcher: Hello World from HMM model
25456000: system.cpu.l1i.prefetcher: Hello World from HMM model
25520000: system.cpu.l1i.prefetcher: Hello World from HMM model
25584000: system.cpu.l1i.prefetcher: Hello World from HMM model
25730000: system.cpu.l1d.prefetcher: Hello World from HMM model
25805000: system.cpu.l1i.prefetcher: Hello World from HMM model
25813000: system.cpu.l1d.prefetcher: Hello World from HMM model
25869000: system.cpu.l1i.prefetcher: Hello World from HMM model
25906000: system.cpu.l1d.prefetcher: Hello World from HMM model
25933000: system.cpu.l1i.prefetcher: Hello World from HMM model
26010000: system.cpu.l1i.prefetcher: Hello World from HMM model
26074000: system.cpu.l1i.prefetcher: Hello World from HMM model
26151000: system.cpu.l1i.prefetcher: Hello World from HMM model
26215000: system.cpu.l1i.prefetcher: Hello World from HMM model
26279000: system.cpu.l1i.prefetcher: Hello World from HMM model
26347000: system.cpu.l1i.prefetcher: Hello World from HMM model
26413000: system.cpu.l1i.prefetcher: Hello World from HMM model
26490000: system.cpu.l1i.prefetcher: Hello World from HMM model
26700000: system.cpu.l1i.prefetcher: Hello World from HMM model
26764000: system.cpu.l1i.prefetcher: Hello World from HMM model
26828000: system.cpu.l1i.prefetcher: Hello World from HMM model
26910000: system.cpu.l1d.prefetcher: Hello World from HMM model
26920000: system.cpu.l1i.prefetcher: Hello World from HMM model
26984000: system.cpu.l1i.prefetcher: Hello World from HMM model
27048000: system.cpu.l1i.prefetcher: Hello World from HMM model
27057000: system.cpu.l1d.prefetcher: Hello World from HMM model
27116000: system.cpu.l1i.prefetcher: Hello World from HMM model
27216000: system.cpu.l1i.prefetcher: Hello World from HMM model
27297000: system.cpu.l1i.prefetcher: Hello World from HMM model
27401000: system.cpu.l1d.prefetcher: Hello World from HMM model
27413000: system.cpu.l1d.prefetcher: Hello World from HMM model
27495000: system.cpu.l1d.prefetcher: Hello World from HMM model
27507000: system.cpu.l1d.prefetcher: Hello World from HMM model
27589000: system.cpu.l1d.prefetcher: Hello World from HMM model
27601000: system.cpu.l1d.prefetcher: Hello World from HMM model
27683000: system.cpu.l1d.prefetcher: Hello World from HMM model
27695000: system.cpu.l1d.prefetcher: Hello World from HMM model
27777000: system.cpu.l1d.prefetcher: Hello World from HMM model
27789000: system.cpu.l1d.prefetcher: Hello World from HMM model
27871000: system.cpu.l1d.prefetcher: Hello World from HMM model
27883000: system.cpu.l1d.prefetcher: Hello World from HMM model
27965000: system.cpu.l1d.prefetcher: Hello World from HMM model
27977000: system.cpu.l1d.prefetcher: Hello World from HMM model
28059000: system.cpu.l1d.prefetcher: Hello World from HMM model
28071000: system.cpu.l1d.prefetcher: Hello World from HMM model
28153000: system.cpu.l1d.prefetcher: Hello World from HMM model
28165000: system.cpu.l1d.prefetcher: Hello World from HMM model
28229000: system.cpu.l1i.prefetcher: Hello World from HMM model
28397000: system.cpu.l1i.prefetcher: Hello World from HMM model
28466000: system.cpu.l1i.prefetcher: Hello World from HMM model
28541000: system.cpu.l1i.prefetcher: Hello World from HMM model
28605000: system.cpu.l1i.prefetcher: Hello World from HMM model
28610000: system.cpu.l1d.prefetcher: Hello World from HMM model
28669000: system.cpu.l1i.prefetcher: Hello World from HMM model
28755000: system.cpu.l1i.prefetcher: Hello World from HMM model
28849000: system.cpu.l1i.prefetcher: Hello World from HMM model
28942000: system.cpu.l1i.prefetcher: Hello World from HMM model
29020000: system.cpu.l1i.prefetcher: Hello World from HMM model
29084000: system.cpu.l1i.prefetcher: Hello World from HMM model
29167000: system.cpu.l1d.prefetcher: Hello World from HMM model
29249000: system.cpu.l1i.prefetcher: Hello World from HMM model
29326000: system.cpu.l1i.prefetcher: Hello World from HMM model
29417000: system.cpu.l1i.prefetcher: Hello World from HMM model
29507000: system.cpu.l1i.prefetcher: Hello World from HMM model
29584000: system.cpu.l1i.prefetcher: Hello World from HMM model
29648000: system.cpu.l1i.prefetcher: Hello World from HMM model
29714000: system.cpu.l1i.prefetcher: Hello World from HMM model
29783000: system.cpu.l1i.prefetcher: Hello World from HMM model
29880000: system.cpu.l1d.prefetcher: Hello World from HMM model
29885000: system.cpu.l1i.prefetcher: Hello World from HMM model
29886000: system.cpu.l1d.prefetcher: Hello World from HMM model
29973000: system.cpu.l1d.prefetcher: Hello World from HMM model
29976000: system.cpu.l1i.prefetcher: Hello World from HMM model
30053000: system.cpu.l1i.prefetcher: Hello World from HMM model
30117000: system.cpu.l1i.prefetcher: Hello World from HMM model
30126000: system.cpu.l1d.prefetcher: Hello World from HMM model
30181000: system.cpu.l1i.prefetcher: Hello World from HMM model
30249000: system.cpu.l1i.prefetcher: Hello World from HMM model
30253000: system.cpu.l1d.prefetcher: Hello World from HMM model
30315000: system.cpu.l1i.prefetcher: Hello World from HMM model
30406000: system.cpu.l1i.prefetcher: Hello World from HMM model
30497000: system.cpu.l1i.prefetcher: Hello World from HMM model
30561000: system.cpu.l1i.prefetcher: Hello World from HMM model
30633000: system.cpu.l1i.prefetcher: Hello World from HMM model
30751000: system.cpu.l1i.prefetcher: Hello World from HMM model
30815000: system.cpu.l1i.prefetcher: Hello World from HMM model
30906000: system.cpu.l1i.prefetcher: Hello World from HMM model
30970000: system.cpu.l1i.prefetcher: Hello World from HMM model
31039000: system.cpu.l1i.prefetcher: Hello World from HMM model
31123000: system.cpu.l1d.prefetcher: Hello World from HMM model
31124000: system.cpu.l1d.prefetcher: Hello World from HMM model
31199000: system.cpu.l1d.prefetcher: Hello World from HMM model
31520000: system.cpu.l1i.prefetcher: Hello World from HMM model
31601000: system.cpu.l1i.prefetcher: Hello World from HMM model
31678000: system.cpu.l1i.prefetcher: Hello World from HMM model
31755000: system.cpu.l1i.prefetcher: Hello World from HMM model
31819000: system.cpu.l1i.prefetcher: Hello World from HMM model
31883000: system.cpu.l1i.prefetcher: Hello World from HMM model
31970000: system.cpu.l1d.prefetcher: Hello World from HMM model
31991000: system.cpu.l1i.prefetcher: Hello World from HMM model
32006000: system.cpu.l1d.prefetcher: Hello World from HMM model
32046000: system.cpu.l1d.prefetcher: Hello World from HMM model
32048000: system.cpu.l1d.prefetcher: Hello World from HMM model
32151000: system.cpu.l1i.prefetcher: Hello World from HMM model
32285000: system.cpu.l1i.prefetcher: Hello World from HMM model
32370000: system.cpu.l1d.prefetcher: Hello World from HMM model
32414000: system.cpu.l1i.prefetcher: Hello World from HMM model
32478000: system.cpu.l1i.prefetcher: Hello World from HMM model
32542000: system.cpu.l1i.prefetcher: Hello World from HMM model
32610000: system.cpu.l1i.prefetcher: Hello World from HMM model
32715000: system.cpu.l1i.prefetcher: Hello World from HMM model
32794000: system.cpu.l1i.prefetcher: Hello World from HMM model
32858000: system.cpu.l1i.prefetcher: Hello World from HMM model
32922000: system.cpu.l1i.prefetcher: Hello World from HMM model
33022000: system.cpu.l1i.prefetcher: Hello World from HMM model
33099000: system.cpu.l1i.prefetcher: Hello World from HMM model
33163000: system.cpu.l1i.prefetcher: Hello World from HMM model
33227000: system.cpu.l1i.prefetcher: Hello World from HMM model
33291000: system.cpu.l1i.prefetcher: Hello World from HMM model
33359000: system.cpu.l1i.prefetcher: Hello World from HMM model
33366000: system.cpu.l1d.prefetcher: Hello World from HMM model
33370000: system.cpu.l1d.prefetcher: Hello World from HMM model
33423000: system.cpu.l1i.prefetcher: Hello World from HMM model
33429000: system.cpu.l1d.prefetcher: Hello World from HMM model
33430000: system.cpu.l1d.prefetcher: Hello World from HMM model
33511000: system.cpu.l1i.prefetcher: Hello World from HMM model
33581000: system.cpu.l1d.prefetcher: Hello World from HMM model
33582000: system.cpu.l1d.prefetcher: Hello World from HMM model
33659000: system.cpu.l1d.prefetcher: Hello World from HMM model
33660000: system.cpu.l1d.prefetcher: Hello World from HMM model
33738000: system.cpu.l1d.prefetcher: Hello World from HMM model
33739000: system.cpu.l1d.prefetcher: Hello World from HMM model
33816000: system.cpu.l1d.prefetcher: Hello World from HMM model
33817000: system.cpu.l1d.prefetcher: Hello World from HMM model
33895000: system.cpu.l1d.prefetcher: Hello World from HMM model
33896000: system.cpu.l1d.prefetcher: Hello World from HMM model
33973000: system.cpu.l1d.prefetcher: Hello World from HMM model
33974000: system.cpu.l1d.prefetcher: Hello World from HMM model
34052000: system.cpu.l1d.prefetcher: Hello World from HMM model
34053000: system.cpu.l1d.prefetcher: Hello World from HMM model
34130000: system.cpu.l1d.prefetcher: Hello World from HMM model
34131000: system.cpu.l1d.prefetcher: Hello World from HMM model
34209000: system.cpu.l1d.prefetcher: Hello World from HMM model
34210000: system.cpu.l1d.prefetcher: Hello World from HMM model
34287000: system.cpu.l1d.prefetcher: Hello World from HMM model
34288000: system.cpu.l1d.prefetcher: Hello World from HMM model
34366000: system.cpu.l1d.prefetcher: Hello World from HMM model
34367000: system.cpu.l1d.prefetcher: Hello World from HMM model
34444000: system.cpu.l1d.prefetcher: Hello World from HMM model
34445000: system.cpu.l1d.prefetcher: Hello World from HMM model
34523000: system.cpu.l1d.prefetcher: Hello World from HMM model
34524000: system.cpu.l1d.prefetcher: Hello World from HMM model
34601000: system.cpu.l1d.prefetcher: Hello World from HMM model
34602000: system.cpu.l1d.prefetcher: Hello World from HMM model
34693000: system.cpu.l1d.prefetcher: Hello World from HMM model
34694000: system.cpu.l1d.prefetcher: Hello World from HMM model
34771000: system.cpu.l1d.prefetcher: Hello World from HMM model
34772000: system.cpu.l1d.prefetcher: Hello World from HMM model
34870000: system.cpu.l1i.prefetcher: Hello World from HMM model
34991000: system.cpu.l1i.prefetcher: Hello World from HMM model
35086000: system.cpu.l1i.prefetcher: Hello World from HMM model
35189000: system.cpu.l1i.prefetcher: Hello World from HMM model
35295000: system.cpu.l1i.prefetcher: Hello World from HMM model
35359000: system.cpu.l1i.prefetcher: Hello World from HMM model
35423000: system.cpu.l1i.prefetcher: Hello World from HMM model
35487000: system.cpu.l1i.prefetcher: Hello World from HMM model
35555000: system.cpu.l1i.prefetcher: Hello World from HMM model
35624000: system.cpu.l1i.prefetcher: Hello World from HMM model
35692000: system.cpu.l1i.prefetcher: Hello World from HMM model
35758000: system.cpu.l1i.prefetcher: Hello World from HMM model
35865000: system.cpu.l1d.prefetcher: Hello World from HMM model
35866000: system.cpu.l1d.prefetcher: Hello World from HMM model
35868000: system.cpu.l1i.prefetcher: Hello World from HMM model
35958000: system.cpu.l1i.prefetcher: Hello World from HMM model
36024000: system.cpu.l1i.prefetcher: Hello World from HMM model
36096000: system.cpu.l1i.prefetcher: Hello World from HMM model
36160000: system.cpu.l1i.prefetcher: Hello World from HMM model
36224000: system.cpu.l1i.prefetcher: Hello World from HMM model
36288000: system.cpu.l1i.prefetcher: Hello World from HMM model
36352000: system.cpu.l1i.prefetcher: Hello World from HMM model
36416000: system.cpu.l1i.prefetcher: Hello World from HMM model
36480000: system.cpu.l1i.prefetcher: Hello World from HMM model
36544000: system.cpu.l1i.prefetcher: Hello World from HMM model
36619000: system.cpu.l1i.prefetcher: Hello World from HMM model
36693000: system.cpu.l1i.prefetcher: Hello World from HMM model
36761000: system.cpu.l1i.prefetcher: Hello World from HMM model
36834000: system.cpu.l1i.prefetcher: Hello World from HMM model
36898000: system.cpu.l1i.prefetcher: Hello World from HMM model
36962000: system.cpu.l1i.prefetcher: Hello World from HMM model
37058000: system.cpu.l1i.prefetcher: Hello World from HMM model
37130000: system.cpu.l1i.prefetcher: Hello World from HMM model
37216000: system.cpu.l1i.prefetcher: Hello World from HMM model
37302000: system.cpu.l1i.prefetcher: Hello World from HMM model
37413000: system.cpu.l1i.prefetcher: Hello World from HMM model
37498000: system.cpu.l1i.prefetcher: Hello World from HMM model
37581000: system.cpu.l1i.prefetcher: Hello World from HMM model
37652000: system.cpu.l1i.prefetcher: Hello World from HMM model
37726000: system.cpu.l1i.prefetcher: Hello World from HMM model
37790000: system.cpu.l1i.prefetcher: Hello World from HMM model
37854000: system.cpu.l1i.prefetcher: Hello World from HMM model
37918000: system.cpu.l1i.prefetcher: Hello World from HMM model
37982000: system.cpu.l1i.prefetcher: Hello World from HMM model
38048000: system.cpu.l1i.prefetcher: Hello World from HMM model
38139000: system.cpu.l1i.prefetcher: Hello World from HMM model
38207000: system.cpu.l1i.prefetcher: Hello World from HMM model
38217000: system.cpu.l1d.prefetcher: Hello World from HMM model
38346000: system.cpu.l1d.prefetcher: Hello World from HMM model
38439000: system.cpu.l1i.prefetcher: Hello World from HMM model
38503000: system.cpu.l1i.prefetcher: Hello World from HMM model
38567000: system.cpu.l1i.prefetcher: Hello World from HMM model
38588000: system.cpu.l1d.prefetcher: Hello World from HMM model
38644000: system.cpu.l1i.prefetcher: Hello World from HMM model
38713000: system.cpu.l1i.prefetcher: Hello World from HMM model
38786000: system.cpu.l1i.prefetcher: Hello World from HMM model
39133000: system.cpu.l1i.prefetcher: Hello World from HMM model
39283000: system.cpu.l1i.prefetcher: Hello World from HMM model
39347000: system.cpu.l1i.prefetcher: Hello World from HMM model
39424000: system.cpu.l1i.prefetcher: Hello World from HMM model
39488000: system.cpu.l1i.prefetcher: Hello World from HMM model
39496000: system.cpu.l1d.prefetcher: Hello World from HMM model
39501000: system.cpu.l1d.prefetcher: Hello World from HMM model
39552000: system.cpu.l1i.prefetcher: Hello World from HMM model
39616000: system.cpu.l1i.prefetcher: Hello World from HMM model
39680000: system.cpu.l1i.prefetcher: Hello World from HMM model
39746000: system.cpu.l1i.prefetcher: Hello World from HMM model
39833000: system.cpu.l1i.prefetcher: Hello World from HMM model
39897000: system.cpu.l1i.prefetcher: Hello World from HMM model
39971000: system.cpu.l1i.prefetcher: Hello World from HMM model
40062000: system.cpu.l1i.prefetcher: Hello World from HMM model
40126000: system.cpu.l1i.prefetcher: Hello World from HMM model
40194000: system.cpu.l1i.prefetcher: Hello World from HMM model
40268000: system.cpu.l1i.prefetcher: Hello World from HMM model
40336000: system.cpu.l1i.prefetcher: Hello World from HMM model
40430000: system.cpu.l1i.prefetcher: Hello World from HMM model
40965000: system.cpu.l1i.prefetcher: Hello World from HMM model
41040000: system.cpu.l1i.prefetcher: Hello World from HMM model
41137000: system.cpu.l1i.prefetcher: Hello World from HMM model
41254000: system.cpu.l1i.prefetcher: Hello World from HMM model
41331000: system.cpu.l1i.prefetcher: Hello World from HMM model
41431000: system.cpu.l1i.prefetcher: Hello World from HMM model
41512000: system.cpu.l1i.prefetcher: Hello World from HMM model
41576000: system.cpu.l1i.prefetcher: Hello World from HMM model
42052000: system.cpu.l1i.prefetcher: Hello World from HMM model
42229000: system.cpu.l1i.prefetcher: Hello World from HMM model
42312000: system.cpu.l1i.prefetcher: Hello World from HMM model
42565000: system.cpu.l1d.prefetcher: Hello World from HMM model
43010000: system.cpu.l1i.prefetcher: Hello World from HMM model
43093000: system.cpu.l1i.prefetcher: Hello World from HMM model
43820000: system.cpu.l1i.prefetcher: Hello World from HMM model
43886000: system.cpu.l1i.prefetcher: Hello World from HMM model
43954000: system.cpu.l1i.prefetcher: Hello World from HMM model
44206000: system.cpu.l1i.prefetcher: Hello World from HMM model
44270000: system.cpu.l1i.prefetcher: Hello World from HMM model
44334000: system.cpu.l1i.prefetcher: Hello World from HMM model
44357000: system.cpu.l1d.prefetcher: Hello World from HMM model
44398000: system.cpu.l1i.prefetcher: Hello World from HMM model
44462000: system.cpu.l1i.prefetcher: Hello World from HMM model
44553000: system.cpu.l1i.prefetcher: Hello World from HMM model
44617000: system.cpu.l1i.prefetcher: Hello World from HMM model
44691000: system.cpu.l1d.prefetcher: Hello World from HMM model
44814000: system.cpu.l1i.prefetcher: Hello World from HMM model
44882000: system.cpu.l1i.prefetcher: Hello World from HMM model
44958000: system.cpu.l1i.prefetcher: Hello World from HMM model
45022000: system.cpu.l1i.prefetcher: Hello World from HMM model
45086000: system.cpu.l1i.prefetcher: Hello World from HMM model
45150000: system.cpu.l1i.prefetcher: Hello World from HMM model
45218000: system.cpu.l1i.prefetcher: Hello World from HMM model
45282000: system.cpu.l1i.prefetcher: Hello World from HMM model
45346000: system.cpu.l1i.prefetcher: Hello World from HMM model
45410000: system.cpu.l1i.prefetcher: Hello World from HMM model
45474000: system.cpu.l1i.prefetcher: Hello World from HMM model
45660000: system.cpu.l1i.prefetcher: Hello World from HMM model
45724000: system.cpu.l1i.prefetcher: Hello World from HMM model
45788000: system.cpu.l1i.prefetcher: Hello World from HMM model
45865000: system.cpu.l1i.prefetcher: Hello World from HMM model
45929000: system.cpu.l1i.prefetcher: Hello World from HMM model
45993000: system.cpu.l1i.prefetcher: Hello World from HMM model
46057000: system.cpu.l1i.prefetcher: Hello World from HMM model
46121000: system.cpu.l1i.prefetcher: Hello World from HMM model
46185000: system.cpu.l1i.prefetcher: Hello World from HMM model
46251000: system.cpu.l1i.prefetcher: Hello World from HMM model
46315000: system.cpu.l1i.prefetcher: Hello World from HMM model
46388000: system.cpu.l1i.prefetcher: Hello World from HMM model
46454000: system.cpu.l1i.prefetcher: Hello World from HMM model
46518000: system.cpu.l1i.prefetcher: Hello World from HMM model
46528000: system.cpu.l1d.prefetcher: Hello World from HMM model
46591000: system.cpu.l1i.prefetcher: Hello World from HMM model
46684000: system.cpu.l1i.prefetcher: Hello World from HMM model
46767000: system.cpu.l1i.prefetcher: Hello World from HMM model
47170000: system.cpu.l1d.prefetcher: Hello World from HMM model
47172000: system.cpu.l1d.prefetcher: Hello World from HMM model
47246000: system.cpu.l1d.prefetcher: Hello World from HMM model
47378000: system.cpu.l1d.prefetcher: Hello World from HMM model
47462000: system.cpu.l1i.prefetcher: Hello World from HMM model
47539000: system.cpu.l1i.prefetcher: Hello World from HMM model
47603000: system.cpu.l1i.prefetcher: Hello World from HMM model
47729000: system.cpu.l1d.prefetcher: Hello World from HMM model
47821000: system.cpu.l1i.prefetcher: Hello World from HMM model
47894000: system.cpu.l1i.prefetcher: Hello World from HMM model
48039000: system.cpu.l1i.prefetcher: Hello World from HMM model
48423000: system.cpu.l1i.prefetcher: Hello World from HMM model
48529000: system.cpu.l1d.prefetcher: Hello World from HMM model
48545000: system.cpu.l1d.prefetcher: Hello World from HMM model
49156000: system.cpu.l1i.prefetcher: Hello World from HMM model
49399000: system.cpu.l1i.prefetcher: Hello World from HMM model
49660000: system.cpu.l1d.prefetcher: Hello World from HMM model
49747000: system.cpu.l1d.prefetcher: Hello World from HMM model
49747000: system.cpu.l1i.prefetcher: Hello World from HMM model
50140000: system.cpu.l1d.prefetcher: Hello World from HMM model
50226000: system.cpu.l1i.prefetcher: Hello World from HMM model
50253000: system.cpu.l1d.prefetcher: Hello World from HMM model
50343000: system.cpu.l1i.prefetcher: Hello World from HMM model
50360000: system.cpu.l1d.prefetcher: Hello World from HMM model
50407000: system.cpu.l1i.prefetcher: Hello World from HMM model
50436000: system.cpu.l1d.prefetcher: Hello World from HMM model
50501000: system.cpu.l1d.prefetcher: Hello World from HMM model
50501000: system.cpu.l1i.prefetcher: Hello World from HMM model
50502000: system.cpu.l1d.prefetcher: Hello World from HMM model
50661000: system.cpu.l1d.prefetcher: Hello World from HMM model
50666000: system.cpu.l1d.prefetcher: Hello World from HMM model
50790000: system.cpu.l1d.prefetcher: Hello World from HMM model
50816000: system.cpu.l1d.prefetcher: Hello World from HMM model
50963000: system.cpu.l1d.prefetcher: Hello World from HMM model
50984000: system.cpu.l1i.prefetcher: Hello World from HMM model
51065000: system.cpu.l1i.prefetcher: Hello World from HMM model
51444000: system.cpu.l1d.prefetcher: Hello World from HMM model
51642000: system.cpu.l1i.prefetcher: Hello World from HMM model
52040000: system.cpu.l1d.prefetcher: Hello World from HMM model
52040000: system.cpu.l1d.prefetcher: Hello World from HMM model
52131000: system.cpu.l1i.prefetcher: Hello World from HMM model
52283000: system.cpu.l1i.prefetcher: Hello World from HMM model
52374000: system.cpu.l1i.prefetcher: Hello World from HMM model
52684000: system.cpu.l1i.prefetcher: Hello World from HMM model
52755000: system.cpu.l1i.prefetcher: Hello World from HMM model
52760000: system.cpu.l1d.prefetcher: Hello World from HMM model
53098000: system.cpu.l1d.prefetcher: Hello World from HMM model
53219000: system.cpu.l1d.prefetcher: Hello World from HMM model
53220000: system.cpu.l1d.prefetcher: Hello World from HMM model
53329000: system.cpu.l1i.prefetcher: Hello World from HMM model
53420000: system.cpu.l1i.prefetcher: Hello World from HMM model
53484000: system.cpu.l1i.prefetcher: Hello World from HMM model
53552000: system.cpu.l1i.prefetcher: Hello World from HMM model
53616000: system.cpu.l1i.prefetcher: Hello World from HMM model
53707000: system.cpu.l1i.prefetcher: Hello World from HMM model
53775000: system.cpu.l1i.prefetcher: Hello World from HMM model
53847000: system.cpu.l1i.prefetcher: Hello World from HMM model
53964000: system.cpu.l1i.prefetcher: Hello World from HMM model
54055000: system.cpu.l1i.prefetcher: Hello World from HMM model
54130000: system.cpu.l1i.prefetcher: Hello World from HMM model
54207000: system.cpu.l1i.prefetcher: Hello World from HMM model
54271000: system.cpu.l1i.prefetcher: Hello World from HMM model
54281000: system.cpu.l1d.prefetcher: Hello World from HMM model
54281000: system.cpu.l1d.prefetcher: Hello World from HMM model
54335000: system.cpu.l1i.prefetcher: Hello World from HMM model
54403000: system.cpu.l1i.prefetcher: Hello World from HMM model
54466000: system.cpu.l1i.prefetcher: Hello World from HMM model
54534000: system.cpu.l1i.prefetcher: Hello World from HMM model
54541000: system.cpu.l1d.prefetcher: Hello World from HMM model
54545000: system.cpu.l1d.prefetcher: Hello World from HMM model
54847000: system.cpu.l1i.prefetcher: Hello World from HMM model
54924000: system.cpu.l1i.prefetcher: Hello World from HMM model
55001000: system.cpu.l1i.prefetcher: Hello World from HMM model
55078000: system.cpu.l1i.prefetcher: Hello World from HMM model
55085000: system.cpu.l1d.prefetcher: Hello World from HMM model
55142000: system.cpu.l1i.prefetcher: Hello World from HMM model
55147000: system.cpu.l1d.prefetcher: Hello World from HMM model
55206000: system.cpu.l1i.prefetcher: Hello World from HMM model
55308000: system.cpu.l1i.prefetcher: Hello World from HMM model
55385000: system.cpu.l1i.prefetcher: Hello World from HMM model
55462000: system.cpu.l1i.prefetcher: Hello World from HMM model
55526000: system.cpu.l1i.prefetcher: Hello World from HMM model
55531000: system.cpu.l1d.prefetcher: Hello World from HMM model
55590000: system.cpu.l1i.prefetcher: Hello World from HMM model
55654000: system.cpu.l1i.prefetcher: Hello World from HMM model
55718000: system.cpu.l1i.prefetcher: Hello World from HMM model
55723000: system.cpu.l1d.prefetcher: Hello World from HMM model
55782000: system.cpu.l1i.prefetcher: Hello World from HMM model
55793000: system.cpu.l1d.prefetcher: Hello World from HMM model
55846000: system.cpu.l1i.prefetcher: Hello World from HMM model
55916000: system.cpu.l1i.prefetcher: Hello World from HMM model
55982000: system.cpu.l1i.prefetcher: Hello World from HMM model
56072000: system.cpu.l1i.prefetcher: Hello World from HMM model
56143000: system.cpu.l1i.prefetcher: Hello World from HMM model
56157000: system.cpu.l1d.prefetcher: Hello World from HMM model
56158000: system.cpu.l1d.prefetcher: Hello World from HMM model
56225000: system.cpu.l1i.prefetcher: Hello World from HMM model
56314000: system.cpu.l1i.prefetcher: Hello World from HMM model
56330000: system.cpu.l1i.prefetcher: Hello World from HMM model
56398000: system.cpu.l1i.prefetcher: Hello World from HMM model
56462000: system.cpu.l1i.prefetcher: Hello World from HMM model
56582000: system.cpu.l1i.prefetcher: Hello World from HMM model
56646000: system.cpu.l1i.prefetcher: Hello World from HMM model
56710000: system.cpu.l1i.prefetcher: Hello World from HMM model
56774000: system.cpu.l1i.prefetcher: Hello World from HMM model
56838000: system.cpu.l1i.prefetcher: Hello World from HMM model
56929000: system.cpu.l1i.prefetcher: Hello World from HMM model
56934000: system.cpu.l1d.prefetcher: Hello World from HMM model
56993000: system.cpu.l1i.prefetcher: Hello World from HMM model
57084000: system.cpu.l1i.prefetcher: Hello World from HMM model
57148000: system.cpu.l1i.prefetcher: Hello World from HMM model
57161000: system.cpu.l1d.prefetcher: Hello World from HMM model
57162000: system.cpu.l1d.prefetcher: Hello World from HMM model
57212000: system.cpu.l1i.prefetcher: Hello World from HMM model
57283000: system.cpu.l1d.prefetcher: Hello World from HMM model
57430000: system.cpu.l1i.prefetcher: Hello World from HMM model
57446000: system.cpu.l1i.prefetcher: Hello World from HMM model
57513000: system.cpu.l1i.prefetcher: Hello World from HMM model
57604000: system.cpu.l1i.prefetcher: Hello World from HMM model
57668000: system.cpu.l1i.prefetcher: Hello World from HMM model
57732000: system.cpu.l1i.prefetcher: Hello World from HMM model
57796000: system.cpu.l1i.prefetcher: Hello World from HMM model
57860000: system.cpu.l1i.prefetcher: Hello World from HMM model
57935000: system.cpu.l1d.prefetcher: Hello World from HMM model
58104000: system.cpu.l1i.prefetcher: Hello World from HMM model
58206000: system.cpu.l1i.prefetcher: Hello World from HMM model
58308000: system.cpu.l1i.prefetcher: Hello World from HMM model
58372000: system.cpu.l1i.prefetcher: Hello World from HMM model
58436000: system.cpu.l1i.prefetcher: Hello World from HMM model
58504000: system.cpu.l1i.prefetcher: Hello World from HMM model
58572000: system.cpu.l1i.prefetcher: Hello World from HMM model
58654000: system.cpu.l1i.prefetcher: Hello World from HMM model
58730000: system.cpu.l1i.prefetcher: Hello World from HMM model
58821000: system.cpu.l1i.prefetcher: Hello World from HMM model
58887000: system.cpu.l1i.prefetcher: Hello World from HMM model
58951000: system.cpu.l1i.prefetcher: Hello World from HMM model
58955000: system.cpu.l1d.prefetcher: Hello World from HMM model
58961000: system.cpu.l1d.prefetcher: Hello World from HMM model
59019000: system.cpu.l1i.prefetcher: Hello World from HMM model
59090000: system.cpu.l1d.prefetcher: Hello World from HMM model
59167000: system.cpu.l1d.prefetcher: Hello World from HMM model
59243000: system.cpu.l1i.prefetcher: Hello World from HMM model
59307000: system.cpu.l1i.prefetcher: Hello World from HMM model
59392000: system.cpu.l1d.prefetcher: Hello World from HMM model
59392000: system.cpu.l1i.prefetcher: Hello World from HMM model
59488000: system.cpu.l1d.prefetcher: Hello World from HMM model
59489000: system.cpu.l1d.prefetcher: Hello World from HMM model
59583000: system.cpu.l1i.prefetcher: Hello World from HMM model
59950000: system.cpu.l1d.prefetcher: Hello World from HMM model
60024000: system.cpu.l1d.prefetcher: Hello World from HMM model
60448000: system.cpu.l1d.prefetcher: Hello World from HMM model
60522000: system.cpu.l1d.prefetcher: Hello World from HMM model
60946000: system.cpu.l1d.prefetcher: Hello World from HMM model
61020000: system.cpu.l1d.prefetcher: Hello World from HMM model
61444000: system.cpu.l1d.prefetcher: Hello World from HMM model
61518000: system.cpu.l1d.prefetcher: Hello World from HMM model
61942000: system.cpu.l1d.prefetcher: Hello World from HMM model
62016000: system.cpu.l1d.prefetcher: Hello World from HMM model
62440000: system.cpu.l1d.prefetcher: Hello World from HMM model
62644000: system.cpu.l1d.prefetcher: Hello World from HMM model
63081000: system.cpu.l1d.prefetcher: Hello World from HMM model
63155000: system.cpu.l1d.prefetcher: Hello World from HMM model
63579000: system.cpu.l1d.prefetcher: Hello World from HMM model
63653000: system.cpu.l1d.prefetcher: Hello World from HMM model
64077000: system.cpu.l1d.prefetcher: Hello World from HMM model
64151000: system.cpu.l1d.prefetcher: Hello World from HMM model
64575000: system.cpu.l1d.prefetcher: Hello World from HMM model
64649000: system.cpu.l1d.prefetcher: Hello World from HMM model
65073000: system.cpu.l1d.prefetcher: Hello World from HMM model
65147000: system.cpu.l1d.prefetcher: Hello World from HMM model
65571000: system.cpu.l1d.prefetcher: Hello World from HMM model
65645000: system.cpu.l1d.prefetcher: Hello World from HMM model
66069000: system.cpu.l1d.prefetcher: Hello World from HMM model
66143000: system.cpu.l1d.prefetcher: Hello World from HMM model
66567000: system.cpu.l1d.prefetcher: Hello World from HMM model
66641000: system.cpu.l1d.prefetcher: Hello World from HMM model
67065000: system.cpu.l1d.prefetcher: Hello World from HMM model
67139000: system.cpu.l1d.prefetcher: Hello World from HMM model
67563000: system.cpu.l1d.prefetcher: Hello World from HMM model
67637000: system.cpu.l1d.prefetcher: Hello World from HMM model
68061000: system.cpu.l1d.prefetcher: Hello World from HMM model
68135000: system.cpu.l1d.prefetcher: Hello World from HMM model
68559000: system.cpu.l1d.prefetcher: Hello World from HMM model
68633000: system.cpu.l1d.prefetcher: Hello World from HMM model
69057000: system.cpu.l1d.prefetcher: Hello World from HMM model
69131000: system.cpu.l1d.prefetcher: Hello World from HMM model
69555000: system.cpu.l1d.prefetcher: Hello World from HMM model
69629000: system.cpu.l1d.prefetcher: Hello World from HMM model
70053000: system.cpu.l1d.prefetcher: Hello World from HMM model
70127000: system.cpu.l1d.prefetcher: Hello World from HMM model
70781000: system.cpu.l1d.prefetcher: Hello World from HMM model
70868000: system.cpu.l1d.prefetcher: Hello World from HMM model
71292000: system.cpu.l1d.prefetcher: Hello World from HMM model
71366000: system.cpu.l1d.prefetcher: Hello World from HMM model
71790000: system.cpu.l1d.prefetcher: Hello World from HMM model
71864000: system.cpu.l1d.prefetcher: Hello World from HMM model
72288000: system.cpu.l1d.prefetcher: Hello World from HMM model
72362000: system.cpu.l1d.prefetcher: Hello World from HMM model
72786000: system.cpu.l1d.prefetcher: Hello World from HMM model
72860000: system.cpu.l1d.prefetcher: Hello World from HMM model
73284000: system.cpu.l1d.prefetcher: Hello World from HMM model
73358000: system.cpu.l1d.prefetcher: Hello World from HMM model
73782000: system.cpu.l1d.prefetcher: Hello World from HMM model
73856000: system.cpu.l1d.prefetcher: Hello World from HMM model
74280000: system.cpu.l1d.prefetcher: Hello World from HMM model
74354000: system.cpu.l1d.prefetcher: Hello World from HMM model
74778000: system.cpu.l1d.prefetcher: Hello World from HMM model
74852000: system.cpu.l1d.prefetcher: Hello World from HMM model
75276000: system.cpu.l1d.prefetcher: Hello World from HMM model
75350000: system.cpu.l1d.prefetcher: Hello World from HMM model
75774000: system.cpu.l1d.prefetcher: Hello World from HMM model
75848000: system.cpu.l1d.prefetcher: Hello World from HMM model
76272000: system.cpu.l1d.prefetcher: Hello World from HMM model
76346000: system.cpu.l1d.prefetcher: Hello World from HMM model
76770000: system.cpu.l1d.prefetcher: Hello World from HMM model
76844000: system.cpu.l1d.prefetcher: Hello World from HMM model
77268000: system.cpu.l1d.prefetcher: Hello World from HMM model
77342000: system.cpu.l1d.prefetcher: Hello World from HMM model
77766000: system.cpu.l1d.prefetcher: Hello World from HMM model
77840000: system.cpu.l1d.prefetcher: Hello World from HMM model
78264000: system.cpu.l1d.prefetcher: Hello World from HMM model
78351000: system.cpu.l1d.prefetcher: Hello World from HMM model
78788000: system.cpu.l1d.prefetcher: Hello World from HMM model
78862000: system.cpu.l1d.prefetcher: Hello World from HMM model
79286000: system.cpu.l1d.prefetcher: Hello World from HMM model
79360000: system.cpu.l1d.prefetcher: Hello World from HMM model
79784000: system.cpu.l1d.prefetcher: Hello World from HMM model
79858000: system.cpu.l1d.prefetcher: Hello World from HMM model
80282000: system.cpu.l1d.prefetcher: Hello World from HMM model
80356000: system.cpu.l1d.prefetcher: Hello World from HMM model
80780000: system.cpu.l1d.prefetcher: Hello World from HMM model
80854000: system.cpu.l1d.prefetcher: Hello World from HMM model
81278000: system.cpu.l1d.prefetcher: Hello World from HMM model
81352000: system.cpu.l1d.prefetcher: Hello World from HMM model
81776000: system.cpu.l1d.prefetcher: Hello World from HMM model
81850000: system.cpu.l1d.prefetcher: Hello World from HMM model
82274000: system.cpu.l1d.prefetcher: Hello World from HMM model
82348000: system.cpu.l1d.prefetcher: Hello World from HMM model
82772000: system.cpu.l1d.prefetcher: Hello World from HMM model
82846000: system.cpu.l1d.prefetcher: Hello World from HMM model
83270000: system.cpu.l1d.prefetcher: Hello World from HMM model
83344000: system.cpu.l1d.prefetcher: Hello World from HMM model
83768000: system.cpu.l1d.prefetcher: Hello World from HMM model
83842000: system.cpu.l1d.prefetcher: Hello World from HMM model
84266000: system.cpu.l1d.prefetcher: Hello World from HMM model
84340000: system.cpu.l1d.prefetcher: Hello World from HMM model
84764000: system.cpu.l1d.prefetcher: Hello World from HMM model
84838000: system.cpu.l1d.prefetcher: Hello World from HMM model
85262000: system.cpu.l1d.prefetcher: Hello World from HMM model
85336000: system.cpu.l1d.prefetcher: Hello World from HMM model
85760000: system.cpu.l1d.prefetcher: Hello World from HMM model
86005000: system.cpu.l1d.prefetcher: Hello World from HMM model
86442000: system.cpu.l1d.prefetcher: Hello World from HMM model
86516000: system.cpu.l1d.prefetcher: Hello World from HMM model
86940000: system.cpu.l1d.prefetcher: Hello World from HMM model
87014000: system.cpu.l1d.prefetcher: Hello World from HMM model
87438000: system.cpu.l1d.prefetcher: Hello World from HMM model
87512000: system.cpu.l1d.prefetcher: Hello World from HMM model
87936000: system.cpu.l1d.prefetcher: Hello World from HMM model
88010000: system.cpu.l1d.prefetcher: Hello World from HMM model
88434000: system.cpu.l1d.prefetcher: Hello World from HMM model
88508000: system.cpu.l1d.prefetcher: Hello World from HMM model
88932000: system.cpu.l1d.prefetcher: Hello World from HMM model
89006000: system.cpu.l1d.prefetcher: Hello World from HMM model
89430000: system.cpu.l1d.prefetcher: Hello World from HMM model
89504000: system.cpu.l1d.prefetcher: Hello World from HMM model
89928000: system.cpu.l1d.prefetcher: Hello World from HMM model
90002000: system.cpu.l1d.prefetcher: Hello World from HMM model
90426000: system.cpu.l1d.prefetcher: Hello World from HMM model
90500000: system.cpu.l1d.prefetcher: Hello World from HMM model
90924000: system.cpu.l1d.prefetcher: Hello World from HMM model
90998000: system.cpu.l1d.prefetcher: Hello World from HMM model
91422000: system.cpu.l1d.prefetcher: Hello World from HMM model
91496000: system.cpu.l1d.prefetcher: Hello World from HMM model
91920000: system.cpu.l1d.prefetcher: Hello World from HMM model
91994000: system.cpu.l1d.prefetcher: Hello World from HMM model
92418000: system.cpu.l1d.prefetcher: Hello World from HMM model
92492000: system.cpu.l1d.prefetcher: Hello World from HMM model
92916000: system.cpu.l1d.prefetcher: Hello World from HMM model
92990000: system.cpu.l1d.prefetcher: Hello World from HMM model
93414000: system.cpu.l1d.prefetcher: Hello World from HMM model
93488000: system.cpu.l1d.prefetcher: Hello World from HMM model
94141000: system.cpu.l1d.prefetcher: Hello World from HMM model
94228000: system.cpu.l1d.prefetcher: Hello World from HMM model
94652000: system.cpu.l1d.prefetcher: Hello World from HMM model
94726000: system.cpu.l1d.prefetcher: Hello World from HMM model
95150000: system.cpu.l1d.prefetcher: Hello World from HMM model
95224000: system.cpu.l1d.prefetcher: Hello World from HMM model
95648000: system.cpu.l1d.prefetcher: Hello World from HMM model
95722000: system.cpu.l1d.prefetcher: Hello World from HMM model
96146000: system.cpu.l1d.prefetcher: Hello World from HMM model
96220000: system.cpu.l1d.prefetcher: Hello World from HMM model
96644000: system.cpu.l1d.prefetcher: Hello World from HMM model
96718000: system.cpu.l1d.prefetcher: Hello World from HMM model
97142000: system.cpu.l1d.prefetcher: Hello World from HMM model
97216000: system.cpu.l1d.prefetcher: Hello World from HMM model
97640000: system.cpu.l1d.prefetcher: Hello World from HMM model
97714000: system.cpu.l1d.prefetcher: Hello World from HMM model
98138000: system.cpu.l1d.prefetcher: Hello World from HMM model
98212000: system.cpu.l1d.prefetcher: Hello World from HMM model
98636000: system.cpu.l1d.prefetcher: Hello World from HMM model
98710000: system.cpu.l1d.prefetcher: Hello World from HMM model
99134000: system.cpu.l1d.prefetcher: Hello World from HMM model
99208000: system.cpu.l1d.prefetcher: Hello World from HMM model
99632000: system.cpu.l1d.prefetcher: Hello World from HMM model
99706000: system.cpu.l1d.prefetcher: Hello World from HMM model
100130000: system.cpu.l1d.prefetcher: Hello World from HMM model
100204000: system.cpu.l1d.prefetcher: Hello World from HMM model
100628000: system.cpu.l1d.prefetcher: Hello World from HMM model
100702000: system.cpu.l1d.prefetcher: Hello World from HMM model
101126000: system.cpu.l1d.prefetcher: Hello World from HMM model
101200000: system.cpu.l1d.prefetcher: Hello World from HMM model
101624000: system.cpu.l1d.prefetcher: Hello World from HMM model
101711000: system.cpu.l1d.prefetcher: Hello World from HMM model
102148000: system.cpu.l1d.prefetcher: Hello World from HMM model
102222000: system.cpu.l1d.prefetcher: Hello World from HMM model
102646000: system.cpu.l1d.prefetcher: Hello World from HMM model
102720000: system.cpu.l1d.prefetcher: Hello World from HMM model
103144000: system.cpu.l1d.prefetcher: Hello World from HMM model
103218000: system.cpu.l1d.prefetcher: Hello World from HMM model
103642000: system.cpu.l1d.prefetcher: Hello World from HMM model
103716000: system.cpu.l1d.prefetcher: Hello World from HMM model
104140000: system.cpu.l1d.prefetcher: Hello World from HMM model
104214000: system.cpu.l1d.prefetcher: Hello World from HMM model
104638000: system.cpu.l1d.prefetcher: Hello World from HMM model
104712000: system.cpu.l1d.prefetcher: Hello World from HMM model
105136000: system.cpu.l1d.prefetcher: Hello World from HMM model
105210000: system.cpu.l1d.prefetcher: Hello World from HMM model
105634000: system.cpu.l1d.prefetcher: Hello World from HMM model
105708000: system.cpu.l1d.prefetcher: Hello World from HMM model
106132000: system.cpu.l1d.prefetcher: Hello World from HMM model
106206000: system.cpu.l1d.prefetcher: Hello World from HMM model
106630000: system.cpu.l1d.prefetcher: Hello World from HMM model
106704000: system.cpu.l1d.prefetcher: Hello World from HMM model
107128000: system.cpu.l1d.prefetcher: Hello World from HMM model
107202000: system.cpu.l1d.prefetcher: Hello World from HMM model
107626000: system.cpu.l1d.prefetcher: Hello World from HMM model
107700000: system.cpu.l1d.prefetcher: Hello World from HMM model
108124000: system.cpu.l1d.prefetcher: Hello World from HMM model
108198000: system.cpu.l1d.prefetcher: Hello World from HMM model
108622000: system.cpu.l1d.prefetcher: Hello World from HMM model
108696000: system.cpu.l1d.prefetcher: Hello World from HMM model
109120000: system.cpu.l1d.prefetcher: Hello World from HMM model
109365000: system.cpu.l1d.prefetcher: Hello World from HMM model
109802000: system.cpu.l1d.prefetcher: Hello World from HMM model
109876000: system.cpu.l1d.prefetcher: Hello World from HMM model
110300000: system.cpu.l1d.prefetcher: Hello World from HMM model
110374000: system.cpu.l1d.prefetcher: Hello World from HMM model
110798000: system.cpu.l1d.prefetcher: Hello World from HMM model
110872000: system.cpu.l1d.prefetcher: Hello World from HMM model
111296000: system.cpu.l1d.prefetcher: Hello World from HMM model
111370000: system.cpu.l1d.prefetcher: Hello World from HMM model
111794000: system.cpu.l1d.prefetcher: Hello World from HMM model
111868000: system.cpu.l1d.prefetcher: Hello World from HMM model
112292000: system.cpu.l1d.prefetcher: Hello World from HMM model
112366000: system.cpu.l1d.prefetcher: Hello World from HMM model
112790000: system.cpu.l1d.prefetcher: Hello World from HMM model
112864000: system.cpu.l1d.prefetcher: Hello World from HMM model
113288000: system.cpu.l1d.prefetcher: Hello World from HMM model
113362000: system.cpu.l1d.prefetcher: Hello World from HMM model
113786000: system.cpu.l1d.prefetcher: Hello World from HMM model
113860000: system.cpu.l1d.prefetcher: Hello World from HMM model
114284000: system.cpu.l1d.prefetcher: Hello World from HMM model
114358000: system.cpu.l1d.prefetcher: Hello World from HMM model
114782000: system.cpu.l1d.prefetcher: Hello World from HMM model
114856000: system.cpu.l1d.prefetcher: Hello World from HMM model
115280000: system.cpu.l1d.prefetcher: Hello World from HMM model
115354000: system.cpu.l1d.prefetcher: Hello World from HMM model
115778000: system.cpu.l1d.prefetcher: Hello World from HMM model
115852000: system.cpu.l1d.prefetcher: Hello World from HMM model
116276000: system.cpu.l1d.prefetcher: Hello World from HMM model
116350000: system.cpu.l1d.prefetcher: Hello World from HMM model
116774000: system.cpu.l1d.prefetcher: Hello World from HMM model
116848000: system.cpu.l1d.prefetcher: Hello World from HMM model
117502000: system.cpu.l1d.prefetcher: Hello World from HMM model
117589000: system.cpu.l1d.prefetcher: Hello World from HMM model
118013000: system.cpu.l1d.prefetcher: Hello World from HMM model
118087000: system.cpu.l1d.prefetcher: Hello World from HMM model
118511000: system.cpu.l1d.prefetcher: Hello World from HMM model
118598000: system.cpu.l1d.prefetcher: Hello World from HMM model
119035000: system.cpu.l1d.prefetcher: Hello World from HMM model
119109000: system.cpu.l1d.prefetcher: Hello World from HMM model
119533000: system.cpu.l1d.prefetcher: Hello World from HMM model
119607000: system.cpu.l1d.prefetcher: Hello World from HMM model
120031000: system.cpu.l1d.prefetcher: Hello World from HMM model
120105000: system.cpu.l1d.prefetcher: Hello World from HMM model
120529000: system.cpu.l1d.prefetcher: Hello World from HMM model
120603000: system.cpu.l1d.prefetcher: Hello World from HMM model
121027000: system.cpu.l1d.prefetcher: Hello World from HMM model
121101000: system.cpu.l1d.prefetcher: Hello World from HMM model
121525000: system.cpu.l1d.prefetcher: Hello World from HMM model
121599000: system.cpu.l1d.prefetcher: Hello World from HMM model
122023000: system.cpu.l1d.prefetcher: Hello World from HMM model
122097000: system.cpu.l1d.prefetcher: Hello World from HMM model
122521000: system.cpu.l1d.prefetcher: Hello World from HMM model
122595000: system.cpu.l1d.prefetcher: Hello World from HMM model
123019000: system.cpu.l1d.prefetcher: Hello World from HMM model
123093000: system.cpu.l1d.prefetcher: Hello World from HMM model
123517000: system.cpu.l1d.prefetcher: Hello World from HMM model
123591000: system.cpu.l1d.prefetcher: Hello World from HMM model
124015000: system.cpu.l1d.prefetcher: Hello World from HMM model
124089000: system.cpu.l1d.prefetcher: Hello World from HMM model
124513000: system.cpu.l1d.prefetcher: Hello World from HMM model
124587000: system.cpu.l1d.prefetcher: Hello World from HMM model
125289000: system.cpu.l1d.prefetcher: Hello World from HMM model
125376000: system.cpu.l1d.prefetcher: Hello World from HMM model
125800000: system.cpu.l1d.prefetcher: Hello World from HMM model
125874000: system.cpu.l1d.prefetcher: Hello World from HMM model
126298000: system.cpu.l1d.prefetcher: Hello World from HMM model
126372000: system.cpu.l1d.prefetcher: Hello World from HMM model
126796000: system.cpu.l1d.prefetcher: Hello World from HMM model
126870000: system.cpu.l1d.prefetcher: Hello World from HMM model
127294000: system.cpu.l1d.prefetcher: Hello World from HMM model
127368000: system.cpu.l1d.prefetcher: Hello World from HMM model
127792000: system.cpu.l1d.prefetcher: Hello World from HMM model
127866000: system.cpu.l1d.prefetcher: Hello World from HMM model
128290000: system.cpu.l1d.prefetcher: Hello World from HMM model
128364000: system.cpu.l1d.prefetcher: Hello World from HMM model
128788000: system.cpu.l1d.prefetcher: Hello World from HMM model
128862000: system.cpu.l1d.prefetcher: Hello World from HMM model
129286000: system.cpu.l1d.prefetcher: Hello World from HMM model
129360000: system.cpu.l1d.prefetcher: Hello World from HMM model
129784000: system.cpu.l1d.prefetcher: Hello World from HMM model
129858000: system.cpu.l1d.prefetcher: Hello World from HMM model
130282000: system.cpu.l1d.prefetcher: Hello World from HMM model
130356000: system.cpu.l1d.prefetcher: Hello World from HMM model
130780000: system.cpu.l1d.prefetcher: Hello World from HMM model
130854000: system.cpu.l1d.prefetcher: Hello World from HMM model
131278000: system.cpu.l1d.prefetcher: Hello World from HMM model
131352000: system.cpu.l1d.prefetcher: Hello World from HMM model
131776000: system.cpu.l1d.prefetcher: Hello World from HMM model
131850000: system.cpu.l1d.prefetcher: Hello World from HMM model
132274000: system.cpu.l1d.prefetcher: Hello World from HMM model
132348000: system.cpu.l1d.prefetcher: Hello World from HMM model
132772000: system.cpu.l1d.prefetcher: Hello World from HMM model
132859000: system.cpu.l1d.prefetcher: Hello World from HMM model
133296000: system.cpu.l1d.prefetcher: Hello World from HMM model
133370000: system.cpu.l1d.prefetcher: Hello World from HMM model
133794000: system.cpu.l1d.prefetcher: Hello World from HMM model
133868000: system.cpu.l1d.prefetcher: Hello World from HMM model
134292000: system.cpu.l1d.prefetcher: Hello World from HMM model
134366000: system.cpu.l1d.prefetcher: Hello World from HMM model
134790000: system.cpu.l1d.prefetcher: Hello World from HMM model
134864000: system.cpu.l1d.prefetcher: Hello World from HMM model
135288000: system.cpu.l1d.prefetcher: Hello World from HMM model
135362000: system.cpu.l1d.prefetcher: Hello World from HMM model
135786000: system.cpu.l1d.prefetcher: Hello World from HMM model
135860000: system.cpu.l1d.prefetcher: Hello World from HMM model
136284000: system.cpu.l1d.prefetcher: Hello World from HMM model
136358000: system.cpu.l1d.prefetcher: Hello World from HMM model
136782000: system.cpu.l1d.prefetcher: Hello World from HMM model
136856000: system.cpu.l1d.prefetcher: Hello World from HMM model
137280000: system.cpu.l1d.prefetcher: Hello World from HMM model
137354000: system.cpu.l1d.prefetcher: Hello World from HMM model
137778000: system.cpu.l1d.prefetcher: Hello World from HMM model
137852000: system.cpu.l1d.prefetcher: Hello World from HMM model
138276000: system.cpu.l1d.prefetcher: Hello World from HMM model
138350000: system.cpu.l1d.prefetcher: Hello World from HMM model
138774000: system.cpu.l1d.prefetcher: Hello World from HMM model
138848000: system.cpu.l1d.prefetcher: Hello World from HMM model
139272000: system.cpu.l1d.prefetcher: Hello World from HMM model
139346000: system.cpu.l1d.prefetcher: Hello World from HMM model
139770000: system.cpu.l1d.prefetcher: Hello World from HMM model
139844000: system.cpu.l1d.prefetcher: Hello World from HMM model
140268000: system.cpu.l1d.prefetcher: Hello World from HMM model
140513000: system.cpu.l1d.prefetcher: Hello World from HMM model
140950000: system.cpu.l1d.prefetcher: Hello World from HMM model
141024000: system.cpu.l1d.prefetcher: Hello World from HMM model
141448000: system.cpu.l1d.prefetcher: Hello World from HMM model
141522000: system.cpu.l1d.prefetcher: Hello World from HMM model
141946000: system.cpu.l1d.prefetcher: Hello World from HMM model
142020000: system.cpu.l1d.prefetcher: Hello World from HMM model
142444000: system.cpu.l1d.prefetcher: Hello World from HMM model
142518000: system.cpu.l1d.prefetcher: Hello World from HMM model
142942000: system.cpu.l1d.prefetcher: Hello World from HMM model
143016000: system.cpu.l1d.prefetcher: Hello World from HMM model
143440000: system.cpu.l1d.prefetcher: Hello World from HMM model
143514000: system.cpu.l1d.prefetcher: Hello World from HMM model
143938000: system.cpu.l1d.prefetcher: Hello World from HMM model
144012000: system.cpu.l1d.prefetcher: Hello World from HMM model
144436000: system.cpu.l1d.prefetcher: Hello World from HMM model
144510000: system.cpu.l1d.prefetcher: Hello World from HMM model
144934000: system.cpu.l1d.prefetcher: Hello World from HMM model
145008000: system.cpu.l1d.prefetcher: Hello World from HMM model
145432000: system.cpu.l1d.prefetcher: Hello World from HMM model
145506000: system.cpu.l1d.prefetcher: Hello World from HMM model
145930000: system.cpu.l1d.prefetcher: Hello World from HMM model
146004000: system.cpu.l1d.prefetcher: Hello World from HMM model
146428000: system.cpu.l1d.prefetcher: Hello World from HMM model
146502000: system.cpu.l1d.prefetcher: Hello World from HMM model
146926000: system.cpu.l1d.prefetcher: Hello World from HMM model
147000000: system.cpu.l1d.prefetcher: Hello World from HMM model
147424000: system.cpu.l1d.prefetcher: Hello World from HMM model
147498000: system.cpu.l1d.prefetcher: Hello World from HMM model
147922000: system.cpu.l1d.prefetcher: Hello World from HMM model
147996000: system.cpu.l1d.prefetcher: Hello World from HMM model
148650000: system.cpu.l1d.prefetcher: Hello World from HMM model
148737000: system.cpu.l1d.prefetcher: Hello World from HMM model
149161000: system.cpu.l1d.prefetcher: Hello World from HMM model
149235000: system.cpu.l1d.prefetcher: Hello World from HMM model
149659000: system.cpu.l1d.prefetcher: Hello World from HMM model
149733000: system.cpu.l1d.prefetcher: Hello World from HMM model
150157000: system.cpu.l1d.prefetcher: Hello World from HMM model
150231000: system.cpu.l1d.prefetcher: Hello World from HMM model
150655000: system.cpu.l1d.prefetcher: Hello World from HMM model
150729000: system.cpu.l1d.prefetcher: Hello World from HMM model
151153000: system.cpu.l1d.prefetcher: Hello World from HMM model
151227000: system.cpu.l1d.prefetcher: Hello World from HMM model
151651000: system.cpu.l1d.prefetcher: Hello World from HMM model
151725000: system.cpu.l1d.prefetcher: Hello World from HMM model
152149000: system.cpu.l1d.prefetcher: Hello World from HMM model
152223000: system.cpu.l1d.prefetcher: Hello World from HMM model
152647000: system.cpu.l1d.prefetcher: Hello World from HMM model
152721000: system.cpu.l1d.prefetcher: Hello World from HMM model
153145000: system.cpu.l1d.prefetcher: Hello World from HMM model
153219000: system.cpu.l1d.prefetcher: Hello World from HMM model
153643000: system.cpu.l1d.prefetcher: Hello World from HMM model
153717000: system.cpu.l1d.prefetcher: Hello World from HMM model
154141000: system.cpu.l1d.prefetcher: Hello World from HMM model
154215000: system.cpu.l1d.prefetcher: Hello World from HMM model
154639000: system.cpu.l1d.prefetcher: Hello World from HMM model
154713000: system.cpu.l1d.prefetcher: Hello World from HMM model
155137000: system.cpu.l1d.prefetcher: Hello World from HMM model
155211000: system.cpu.l1d.prefetcher: Hello World from HMM model
155635000: system.cpu.l1d.prefetcher: Hello World from HMM model
155709000: system.cpu.l1d.prefetcher: Hello World from HMM model
156133000: system.cpu.l1d.prefetcher: Hello World from HMM model
156220000: system.cpu.l1d.prefetcher: Hello World from HMM model
156657000: system.cpu.l1d.prefetcher: Hello World from HMM model
156731000: system.cpu.l1d.prefetcher: Hello World from HMM model
157155000: system.cpu.l1d.prefetcher: Hello World from HMM model
157229000: system.cpu.l1d.prefetcher: Hello World from HMM model
157653000: system.cpu.l1d.prefetcher: Hello World from HMM model
157727000: system.cpu.l1d.prefetcher: Hello World from HMM model
158151000: system.cpu.l1d.prefetcher: Hello World from HMM model
158225000: system.cpu.l1d.prefetcher: Hello World from HMM model
158649000: system.cpu.l1d.prefetcher: Hello World from HMM model
158723000: system.cpu.l1d.prefetcher: Hello World from HMM model
159147000: system.cpu.l1d.prefetcher: Hello World from HMM model
159221000: system.cpu.l1d.prefetcher: Hello World from HMM model
159645000: system.cpu.l1d.prefetcher: Hello World from HMM model
159719000: system.cpu.l1d.prefetcher: Hello World from HMM model
160143000: system.cpu.l1d.prefetcher: Hello World from HMM model
160217000: system.cpu.l1d.prefetcher: Hello World from HMM model
160641000: system.cpu.l1d.prefetcher: Hello World from HMM model
160715000: system.cpu.l1d.prefetcher: Hello World from HMM model
161139000: system.cpu.l1d.prefetcher: Hello World from HMM model
161213000: system.cpu.l1d.prefetcher: Hello World from HMM model
161637000: system.cpu.l1d.prefetcher: Hello World from HMM model
161711000: system.cpu.l1d.prefetcher: Hello World from HMM model
162135000: system.cpu.l1d.prefetcher: Hello World from HMM model
162209000: system.cpu.l1d.prefetcher: Hello World from HMM model
[...]
482109000: system.cpu.l1d.prefetcher: Hello World from HMM model
482484000: system.cpu.l1d.prefetcher: Hello World from HMM model
482511000: system.cpu.l1d.prefetcher: Hello World from HMM model
482886000: system.cpu.l1d.prefetcher: Hello World from HMM model
482913000: system.cpu.l1d.prefetcher: Hello World from HMM model
483288000: system.cpu.l1d.prefetcher: Hello World from HMM model
483315000: system.cpu.l1d.prefetcher: Hello World from HMM model
483690000: system.cpu.l1d.prefetcher: Hello World from HMM model
483717000: system.cpu.l1d.prefetcher: Hello World from HMM model
484092000: system.cpu.l1d.prefetcher: Hello World from HMM model
484119000: system.cpu.l1d.prefetcher: Hello World from HMM model
484494000: system.cpu.l1d.prefetcher: Hello World from HMM model
484521000: system.cpu.l1d.prefetcher: Hello World from HMM model
484896000: system.cpu.l1d.prefetcher: Hello World from HMM model
484923000: system.cpu.l1d.prefetcher: Hello World from HMM model
485298000: system.cpu.l1d.prefetcher: Hello World from HMM model
485325000: system.cpu.l1d.prefetcher: Hello World from HMM model
485700000: system.cpu.l1d.prefetcher: Hello World from HMM model
485727000: system.cpu.l1d.prefetcher: Hello World from HMM model
486102000: system.cpu.l1d.prefetcher: Hello World from HMM model
486129000: system.cpu.l1d.prefetcher: Hello World from HMM model
486504000: system.cpu.l1d.prefetcher: Hello World from HMM model
486531000: system.cpu.l1d.prefetcher: Hello World from HMM model
486906000: system.cpu.l1d.prefetcher: Hello World from HMM model
486933000: system.cpu.l1d.prefetcher: Hello World from HMM model
487308000: system.cpu.l1d.prefetcher: Hello World from HMM model
487335000: system.cpu.l1d.prefetcher: Hello World from HMM model
487710000: system.cpu.l1d.prefetcher: Hello World from HMM model
487737000: system.cpu.l1d.prefetcher: Hello World from HMM model
488112000: system.cpu.l1d.prefetcher: Hello World from HMM model
488139000: system.cpu.l1d.prefetcher: Hello World from HMM model
488514000: system.cpu.l1d.prefetcher: Hello World from HMM model
488541000: system.cpu.l1d.prefetcher: Hello World from HMM model
488916000: system.cpu.l1d.prefetcher: Hello World from HMM model
488943000: system.cpu.l1d.prefetcher: Hello World from HMM model
489318000: system.cpu.l1d.prefetcher: Hello World from HMM model
489345000: system.cpu.l1d.prefetcher: Hello World from HMM model
489720000: system.cpu.l1d.prefetcher: Hello World from HMM model
489747000: system.cpu.l1d.prefetcher: Hello World from HMM model
490122000: system.cpu.l1d.prefetcher: Hello World from HMM model
490149000: system.cpu.l1d.prefetcher: Hello World from HMM model
490524000: system.cpu.l1d.prefetcher: Hello World from HMM model
490551000: system.cpu.l1d.prefetcher: Hello World from HMM model
490926000: system.cpu.l1d.prefetcher: Hello World from HMM model
490953000: system.cpu.l1d.prefetcher: Hello World from HMM model
491328000: system.cpu.l1d.prefetcher: Hello World from HMM model
491355000: system.cpu.l1d.prefetcher: Hello World from HMM model
491730000: system.cpu.l1d.prefetcher: Hello World from HMM model
491757000: system.cpu.l1d.prefetcher: Hello World from HMM model
492132000: system.cpu.l1d.prefetcher: Hello World from HMM model
492159000: system.cpu.l1d.prefetcher: Hello World from HMM model
492534000: system.cpu.l1d.prefetcher: Hello World from HMM model
492561000: system.cpu.l1d.prefetcher: Hello World from HMM model
492936000: system.cpu.l1d.prefetcher: Hello World from HMM model
492963000: system.cpu.l1d.prefetcher: Hello World from HMM model
493338000: system.cpu.l1d.prefetcher: Hello World from HMM model
493365000: system.cpu.l1d.prefetcher: Hello World from HMM model
493740000: system.cpu.l1d.prefetcher: Hello World from HMM model
493767000: system.cpu.l1d.prefetcher: Hello World from HMM model
494142000: system.cpu.l1d.prefetcher: Hello World from HMM model
494169000: system.cpu.l1d.prefetcher: Hello World from HMM model
494544000: system.cpu.l1d.prefetcher: Hello World from HMM model
494571000: system.cpu.l1d.prefetcher: Hello World from HMM model
494946000: system.cpu.l1d.prefetcher: Hello World from HMM model
494973000: system.cpu.l1d.prefetcher: Hello World from HMM model
495348000: system.cpu.l1d.prefetcher: Hello World from HMM model
495375000: system.cpu.l1d.prefetcher: Hello World from HMM model
495750000: system.cpu.l1d.prefetcher: Hello World from HMM model
495777000: system.cpu.l1d.prefetcher: Hello World from HMM model
496152000: system.cpu.l1d.prefetcher: Hello World from HMM model
496179000: system.cpu.l1d.prefetcher: Hello World from HMM model
496554000: system.cpu.l1d.prefetcher: Hello World from HMM model
496581000: system.cpu.l1d.prefetcher: Hello World from HMM model
496956000: system.cpu.l1d.prefetcher: Hello World from HMM model
496983000: system.cpu.l1d.prefetcher: Hello World from HMM model
497358000: system.cpu.l1d.prefetcher: Hello World from HMM model
497385000: system.cpu.l1d.prefetcher: Hello World from HMM model
497760000: system.cpu.l1d.prefetcher: Hello World from HMM model
497787000: system.cpu.l1d.prefetcher: Hello World from HMM model
498162000: system.cpu.l1d.prefetcher: Hello World from HMM model
498189000: system.cpu.l1d.prefetcher: Hello World from HMM model
498564000: system.cpu.l1d.prefetcher: Hello World from HMM model
498591000: system.cpu.l1d.prefetcher: Hello World from HMM model
498966000: system.cpu.l1d.prefetcher: Hello World from HMM model
498993000: system.cpu.l1d.prefetcher: Hello World from HMM model
499368000: system.cpu.l1d.prefetcher: Hello World from HMM model
499395000: system.cpu.l1d.prefetcher: Hello World from HMM model
499770000: system.cpu.l1d.prefetcher: Hello World from HMM model
499797000: system.cpu.l1d.prefetcher: Hello World from HMM model
500172000: system.cpu.l1d.prefetcher: Hello World from HMM model
500199000: system.cpu.l1d.prefetcher: Hello World from HMM model
500574000: system.cpu.l1d.prefetcher: Hello World from HMM model
500601000: system.cpu.l1d.prefetcher: Hello World from HMM model
500976000: system.cpu.l1d.prefetcher: Hello World from HMM model
501003000: system.cpu.l1d.prefetcher: Hello World from HMM model
501378000: system.cpu.l1d.prefetcher: Hello World from HMM model
501405000: system.cpu.l1d.prefetcher: Hello World from HMM model
501780000: system.cpu.l1d.prefetcher: Hello World from HMM model
501807000: system.cpu.l1d.prefetcher: Hello World from HMM model
502182000: system.cpu.l1d.prefetcher: Hello World from HMM model
502209000: system.cpu.l1d.prefetcher: Hello World from HMM model
502584000: system.cpu.l1d.prefetcher: Hello World from HMM model
502611000: system.cpu.l1d.prefetcher: Hello World from HMM model
502986000: system.cpu.l1d.prefetcher: Hello World from HMM model
503013000: system.cpu.l1d.prefetcher: Hello World from HMM model
503388000: system.cpu.l1d.prefetcher: Hello World from HMM model
503415000: system.cpu.l1d.prefetcher: Hello World from HMM model
503790000: system.cpu.l1d.prefetcher: Hello World from HMM model
503817000: system.cpu.l1d.prefetcher: Hello World from HMM model
504192000: system.cpu.l1d.prefetcher: Hello World from HMM model
504219000: system.cpu.l1d.prefetcher: Hello World from HMM model
504594000: system.cpu.l1d.prefetcher: Hello World from HMM model
504621000: system.cpu.l1d.prefetcher: Hello World from HMM model
504996000: system.cpu.l1d.prefetcher: Hello World from HMM model
505023000: system.cpu.l1d.prefetcher: Hello World from HMM model
505398000: system.cpu.l1d.prefetcher: Hello World from HMM model
505425000: system.cpu.l1d.prefetcher: Hello World from HMM model
505800000: system.cpu.l1d.prefetcher: Hello World from HMM model
505827000: system.cpu.l1d.prefetcher: Hello World from HMM model
506202000: system.cpu.l1d.prefetcher: Hello World from HMM model
506229000: system.cpu.l1d.prefetcher: Hello World from HMM model
506604000: system.cpu.l1d.prefetcher: Hello World from HMM model
506631000: system.cpu.l1d.prefetcher: Hello World from HMM model
507006000: system.cpu.l1d.prefetcher: Hello World from HMM model
507033000: system.cpu.l1d.prefetcher: Hello World from HMM model
507408000: system.cpu.l1d.prefetcher: Hello World from HMM model
507435000: system.cpu.l1d.prefetcher: Hello World from HMM model
507810000: system.cpu.l1d.prefetcher: Hello World from HMM model
507837000: system.cpu.l1d.prefetcher: Hello World from HMM model
508212000: system.cpu.l1d.prefetcher: Hello World from HMM model
508239000: system.cpu.l1d.prefetcher: Hello World from HMM model
508614000: system.cpu.l1d.prefetcher: Hello World from HMM model
508641000: system.cpu.l1d.prefetcher: Hello World from HMM model
509016000: system.cpu.l1d.prefetcher: Hello World from HMM model
509043000: system.cpu.l1d.prefetcher: Hello World from HMM model
509418000: system.cpu.l1d.prefetcher: Hello World from HMM model
509445000: system.cpu.l1d.prefetcher: Hello World from HMM model
509820000: system.cpu.l1d.prefetcher: Hello World from HMM model
509847000: system.cpu.l1d.prefetcher: Hello World from HMM model
510222000: system.cpu.l1d.prefetcher: Hello World from HMM model
510249000: system.cpu.l1d.prefetcher: Hello World from HMM model
510624000: system.cpu.l1d.prefetcher: Hello World from HMM model
510651000: system.cpu.l1d.prefetcher: Hello World from HMM model
511026000: system.cpu.l1d.prefetcher: Hello World from HMM model
511053000: system.cpu.l1d.prefetcher: Hello World from HMM model
511428000: system.cpu.l1d.prefetcher: Hello World from HMM model
511455000: system.cpu.l1d.prefetcher: Hello World from HMM model
511830000: system.cpu.l1d.prefetcher: Hello World from HMM model
511857000: system.cpu.l1d.prefetcher: Hello World from HMM model
512232000: system.cpu.l1d.prefetcher: Hello World from HMM model
512259000: system.cpu.l1d.prefetcher: Hello World from HMM model
512634000: system.cpu.l1d.prefetcher: Hello World from HMM model
512661000: system.cpu.l1d.prefetcher: Hello World from HMM model
513036000: system.cpu.l1d.prefetcher: Hello World from HMM model
513063000: system.cpu.l1d.prefetcher: Hello World from HMM model
513438000: system.cpu.l1d.prefetcher: Hello World from HMM model
513465000: system.cpu.l1d.prefetcher: Hello World from HMM model
513840000: system.cpu.l1d.prefetcher: Hello World from HMM model
513867000: system.cpu.l1d.prefetcher: Hello World from HMM model
514242000: system.cpu.l1d.prefetcher: Hello World from HMM model
514269000: system.cpu.l1d.prefetcher: Hello World from HMM model
514644000: system.cpu.l1d.prefetcher: Hello World from HMM model
514671000: system.cpu.l1d.prefetcher: Hello World from HMM model
515046000: system.cpu.l1d.prefetcher: Hello World from HMM model
515073000: system.cpu.l1d.prefetcher: Hello World from HMM model
515448000: system.cpu.l1d.prefetcher: Hello World from HMM model
515475000: system.cpu.l1d.prefetcher: Hello World from HMM model
515850000: system.cpu.l1d.prefetcher: Hello World from HMM model
515877000: system.cpu.l1d.prefetcher: Hello World from HMM model
516252000: system.cpu.l1d.prefetcher: Hello World from HMM model
516279000: system.cpu.l1d.prefetcher: Hello World from HMM model
516654000: system.cpu.l1d.prefetcher: Hello World from HMM model
516681000: system.cpu.l1d.prefetcher: Hello World from HMM model
517056000: system.cpu.l1d.prefetcher: Hello World from HMM model
517083000: system.cpu.l1d.prefetcher: Hello World from HMM model
517458000: system.cpu.l1d.prefetcher: Hello World from HMM model
517485000: system.cpu.l1d.prefetcher: Hello World from HMM model
517860000: system.cpu.l1d.prefetcher: Hello World from HMM model
517887000: system.cpu.l1d.prefetcher: Hello World from HMM model
518262000: system.cpu.l1d.prefetcher: Hello World from HMM model
518289000: system.cpu.l1d.prefetcher: Hello World from HMM model
518664000: system.cpu.l1d.prefetcher: Hello World from HMM model
518691000: system.cpu.l1d.prefetcher: Hello World from HMM model
519066000: system.cpu.l1d.prefetcher: Hello World from HMM model
519093000: system.cpu.l1d.prefetcher: Hello World from HMM model
519468000: system.cpu.l1d.prefetcher: Hello World from HMM model
519495000: system.cpu.l1d.prefetcher: Hello World from HMM model
519870000: system.cpu.l1d.prefetcher: Hello World from HMM model
519897000: system.cpu.l1d.prefetcher: Hello World from HMM model
520272000: system.cpu.l1d.prefetcher: Hello World from HMM model
520299000: system.cpu.l1d.prefetcher: Hello World from HMM model
520674000: system.cpu.l1d.prefetcher: Hello World from HMM model
520701000: system.cpu.l1d.prefetcher: Hello World from HMM model
521076000: system.cpu.l1d.prefetcher: Hello World from HMM model
521103000: system.cpu.l1d.prefetcher: Hello World from HMM model
521478000: system.cpu.l1d.prefetcher: Hello World from HMM model
521505000: system.cpu.l1d.prefetcher: Hello World from HMM model
521880000: system.cpu.l1d.prefetcher: Hello World from HMM model
521907000: system.cpu.l1d.prefetcher: Hello World from HMM model
522282000: system.cpu.l1d.prefetcher: Hello World from HMM model
522309000: system.cpu.l1d.prefetcher: Hello World from HMM model
522684000: system.cpu.l1d.prefetcher: Hello World from HMM model
522711000: system.cpu.l1d.prefetcher: Hello World from HMM model
523086000: system.cpu.l1d.prefetcher: Hello World from HMM model
523113000: system.cpu.l1d.prefetcher: Hello World from HMM model
523488000: system.cpu.l1d.prefetcher: Hello World from HMM model
523515000: system.cpu.l1d.prefetcher: Hello World from HMM model
523890000: system.cpu.l1d.prefetcher: Hello World from HMM model
523917000: system.cpu.l1d.prefetcher: Hello World from HMM model
524292000: system.cpu.l1d.prefetcher: Hello World from HMM model
524319000: system.cpu.l1d.prefetcher: Hello World from HMM model
524694000: system.cpu.l1d.prefetcher: Hello World from HMM model
524721000: system.cpu.l1d.prefetcher: Hello World from HMM model
525096000: system.cpu.l1d.prefetcher: Hello World from HMM model
525123000: system.cpu.l1d.prefetcher: Hello World from HMM model
525498000: system.cpu.l1d.prefetcher: Hello World from HMM model
525525000: system.cpu.l1d.prefetcher: Hello World from HMM model
525900000: system.cpu.l1d.prefetcher: Hello World from HMM model
525922000: system.cpu.l1d.prefetcher: Hello World from HMM model
525939000: system.cpu.l1d.prefetcher: Hello World from HMM model
525954000: system.cpu.l1i.prefetcher: Hello World from HMM model
526044000: system.cpu.l1i.prefetcher: Hello World from HMM model
526047000: system.cpu.l1d.prefetcher: Hello World from HMM model
526050000: system.cpu.l1d.prefetcher: Hello World from HMM model
526064000: system.cpu.l1d.prefetcher: Hello World from HMM model
526121000: system.cpu.l1i.prefetcher: Hello World from HMM model
526192000: system.cpu.l1d.prefetcher: Hello World from HMM model
526197000: system.cpu.l1i.prefetcher: Hello World from HMM model
526209000: system.cpu.l1d.prefetcher: Hello World from HMM model
526226000: system.cpu.l1d.prefetcher: Hello World from HMM model
526266000: system.cpu.l1d.prefetcher: Hello World from HMM model
526269000: system.cpu.l1i.prefetcher: Hello World from HMM model
526307000: system.cpu.l1d.prefetcher: Hello World from HMM model
526343000: system.cpu.l1d.prefetcher: Hello World from HMM model
526347000: system.cpu.l1i.prefetcher: Hello World from HMM model
526348000: system.cpu.l1d.prefetcher: Hello World from HMM model
526424000: system.cpu.l1i.prefetcher: Hello World from HMM model
526506000: system.cpu.l1d.prefetcher: Hello World from HMM model
526648000: system.cpu.l1d.prefetcher: Hello World from HMM model
526672000: system.cpu.l1i.prefetcher: Hello World from HMM model
526726000: system.cpu.l1i.prefetcher: Hello World from HMM model
526803000: system.cpu.l1i.prefetcher: Hello World from HMM model
526867000: system.cpu.l1i.prefetcher: Hello World from HMM model
526944000: system.cpu.l1i.prefetcher: Hello World from HMM model
526956000: system.cpu.l1d.prefetcher: Hello World from HMM model
527012000: system.cpu.l1i.prefetcher: Hello World from HMM model
527015000: system.cpu.l1d.prefetcher: Hello World from HMM model
527080000: system.cpu.l1i.prefetcher: Hello World from HMM model
527082000: system.cpu.l1d.prefetcher: Hello World from HMM model
527200000: system.cpu.l1i.prefetcher: Hello World from HMM model
527264000: system.cpu.l1i.prefetcher: Hello World from HMM model
527341000: system.cpu.l1i.prefetcher: Hello World from HMM model
527409000: system.cpu.l1i.prefetcher: Hello World from HMM model
527530000: system.cpu.l1i.prefetcher: Hello World from HMM model
527596000: system.cpu.l1i.prefetcher: Hello World from HMM model
527687000: system.cpu.l1i.prefetcher: Hello World from HMM model
527711000: system.cpu.l1d.prefetcher: Hello World from HMM model
527751000: system.cpu.l1i.prefetcher: Hello World from HMM model
527815000: system.cpu.l1i.prefetcher: Hello World from HMM model
527892000: system.cpu.l1i.prefetcher: Hello World from HMM model
527956000: system.cpu.l1i.prefetcher: Hello World from HMM model
527964000: system.cpu.l1d.prefetcher: Hello World from HMM model
528020000: system.cpu.l1i.prefetcher: Hello World from HMM model
528084000: system.cpu.l1i.prefetcher: Hello World from HMM model
528097000: system.cpu.l1d.prefetcher: Hello World from HMM model
528100000: system.cpu.l1d.prefetcher: Hello World from HMM model
528148000: system.cpu.l1i.prefetcher: Hello World from HMM model
528212000: system.cpu.l1i.prefetcher: Hello World from HMM model
528276000: system.cpu.l1i.prefetcher: Hello World from HMM model
528282000: system.cpu.l1d.prefetcher: Hello World from HMM model
528286000: system.cpu.l1d.prefetcher: Hello World from HMM model
528344000: system.cpu.l1i.prefetcher: Hello World from HMM model
528348000: system.cpu.l1d.prefetcher: Hello World from HMM model
528408000: system.cpu.l1i.prefetcher: Hello World from HMM model
528442000: system.cpu.l1d.prefetcher: Hello World from HMM model
528472000: system.cpu.l1i.prefetcher: Hello World from HMM model
528536000: system.cpu.l1i.prefetcher: Hello World from HMM model
528602000: system.cpu.l1i.prefetcher: Hello World from HMM model
528666000: system.cpu.l1i.prefetcher: Hello World from HMM model
528669000: system.cpu.l1d.prefetcher: Hello World from HMM model
528732000: system.cpu.l1d.prefetcher: Hello World from HMM model
528733000: system.cpu.l1d.prefetcher: Hello World from HMM model
528826000: system.cpu.l1d.prefetcher: Hello World from HMM model
528892000: system.cpu.l1d.prefetcher: Hello World from HMM model
528955000: system.cpu.l1d.prefetcher: Hello World from HMM model
529018000: system.cpu.l1d.prefetcher: Hello World from HMM model
529019000: system.cpu.l1d.prefetcher: Hello World from HMM model
529110000: system.cpu.l1d.prefetcher: Hello World from HMM model
529176000: system.cpu.l1d.prefetcher: Hello World from HMM model
529239000: system.cpu.l1d.prefetcher: Hello World from HMM model
529334000: system.cpu.l1d.prefetcher: Hello World from HMM model
529432000: system.cpu.l1i.prefetcher: Hello World from HMM model
529535000: system.cpu.l1i.prefetcher: Hello World from HMM model
529848000: system.cpu.l1i.prefetcher: Hello World from HMM model
529912000: system.cpu.l1i.prefetcher: Hello World from HMM model
529982000: system.cpu.l1i.prefetcher: Hello World from HMM model
530050000: system.cpu.l1i.prefetcher: Hello World from HMM model
530124000: system.cpu.l1i.prefetcher: Hello World from HMM model
530206000: system.cpu.l1d.prefetcher: Hello World from HMM model
530292000: system.cpu.l1i.prefetcher: Hello World from HMM model
530356000: system.cpu.l1i.prefetcher: Hello World from HMM model
530420000: system.cpu.l1i.prefetcher: Hello World from HMM model
530503000: system.cpu.l1i.prefetcher: Hello World from HMM model
530583000: system.cpu.l1i.prefetcher: Hello World from HMM model
530660000: system.cpu.l1i.prefetcher: Hello World from HMM model
530728000: system.cpu.l1i.prefetcher: Hello World from HMM model
Exit Eventexiting with last active thread context
Dump stats at the end of the ROI!
