gem5 Simulator System.  http://gem5.org
gem5 is copyrighted software; use the --copyright option for details.

gem5 version 20.1.0.2
gem5 compiled Dec  8 2021 01:25:50
gem5 started Dec  8 2021 01:27:13
gem5 executing on ARCH-750, pid 985616
command line: /data/home/ycc32/450_project/gem5/build/X86/gem5.opt --debug-flags=HWPrefetch -re --outdir=/data/home/ycc32/450_project/gem5/results/X86/run_micro/DP1f/Minor4/Slow/DDR3_2133_8x8/1GHz gem5-config/run_micro.py Minor4 Slow microbenchmark/DP1f/bench.X86 DDR3_2133_8x8 --clock=1GHz

1GHz CPU speed and DRAM = DDR3_2133_8x8
system.py: init L2 cache with size 1MB
Global frequency set at 1000000000000 ticks per second
   1000: system.cpu.l1i.prefetcher: PC:   0X401BF0
   1000: system.cpu.l1i.prefetcher: Spatial Region address:        0X3
   1000: system.cpu.l1i.prefetcher: Spatial Region physical address:     0X1BC0
   1000: system.cpu.l1i.prefetcher: Spatial Region offset:        0XF
   1000: system.cpu.l1i.prefetcher: Created FT entry with:   0x401bf0
  79000: system.cpu.l1i.prefetcher: PC:   0X401C00
  79000: system.cpu.l1i.prefetcher: Spatial Region address:        0X3
  79000: system.cpu.l1i.prefetcher: Spatial Region physical address:     0X1C00
  79000: system.cpu.l1i.prefetcher: Spatial Region offset:       0X10
  79000: system.cpu.l1i.prefetcher: Created FT entry with:   0x401c00
  82000: system.cpu.l1d.prefetcher: PC:   0X401BF9
  82000: system.cpu.l1d.prefetcher: Spatial Region address:      0X1A7
  82000: system.cpu.l1d.prefetcher: Spatial Region physical address:    0XD3E40
  82000: system.cpu.l1d.prefetcher: Spatial Region offset:       0X19
  82000: system.cpu.l1d.prefetcher: Created FT entry with:   0x401bf9
 143000: system.cpu.l1i.prefetcher: PC:   0X401C40
 143000: system.cpu.l1i.prefetcher: Spatial Region address:        0X3
 143000: system.cpu.l1i.prefetcher: Spatial Region physical address:     0X1C40
 143000: system.cpu.l1i.prefetcher: Spatial Region offset:       0X11
 143000: system.cpu.l1i.prefetcher: Created FT entry with:   0x401c40
 163000: system.cpu.l1d.prefetcher: PC:   0X401C01
 163000: system.cpu.l1d.prefetcher: Spatial Region address:      0X1A7
 163000: system.cpu.l1d.prefetcher: Spatial Region physical address:    0XD3E38
 163000: system.cpu.l1d.prefetcher: Spatial Region offset:       0X18
 163000: system.cpu.l1d.prefetcher: Created FT entry with:   0x401c01
 166000: system.cpu.l1d.prefetcher: PC:   0X401C02
 166000: system.cpu.l1d.prefetcher: Spatial Region address:      0X1A7
 166000: system.cpu.l1d.prefetcher: Spatial Region physical address:    0XD3E30
 166000: system.cpu.l1d.prefetcher: Spatial Region offset:       0X18
 166000: system.cpu.l1d.prefetcher: Created FT entry with:   0x401c02
 207000: system.cpu.l1i.prefetcher: PC:   0X402110
 207000: system.cpu.l1i.prefetcher: Spatial Region address:        0X4
 207000: system.cpu.l1i.prefetcher: Spatial Region physical address:     0X2100
 207000: system.cpu.l1i.prefetcher: Spatial Region offset:        0X4
 207000: system.cpu.l1i.prefetcher: Created FT entry with:   0x402110
 284000: system.cpu.l1i.prefetcher: PC:   0X402140
 284000: system.cpu.l1i.prefetcher: Spatial Region address:        0X4
 284000: system.cpu.l1i.prefetcher: Spatial Region physical address:     0X2140
 284000: system.cpu.l1i.prefetcher: Spatial Region offset:        0X5
 284000: system.cpu.l1i.prefetcher: Created FT entry with:   0x402140
 304000: system.cpu.l1d.prefetcher: PC:   0X40212E
 304000: system.cpu.l1d.prefetcher: Spatial Region address:      0X1A7
 304000: system.cpu.l1d.prefetcher: Spatial Region physical address:    0XD3D30
 304000: system.cpu.l1d.prefetcher: Spatial Region offset:       0X14
 304000: system.cpu.l1d.prefetcher: Created FT entry with:   0x40212e
 307000: system.cpu.l1d.prefetcher: PC:   0X40213A
 307000: system.cpu.l1d.prefetcher: Spatial Region address:      0X1A7
 307000: system.cpu.l1d.prefetcher: Spatial Region physical address:    0XD3D38
 307000: system.cpu.l1d.prefetcher: Spatial Region offset:       0X14
 307000: system.cpu.l1d.prefetcher: Created FT entry with:   0x40213a
 348000: system.cpu.l1i.prefetcher: PC:   0X402180
 348000: system.cpu.l1i.prefetcher: Spatial Region address:        0X4
 348000: system.cpu.l1i.prefetcher: Spatial Region physical address:     0X2180
 348000: system.cpu.l1i.prefetcher: Spatial Region offset:        0X6
 348000: system.cpu.l1i.prefetcher: Created FT entry with:   0x402180
 416000: system.cpu.l1i.prefetcher: PC:   0X4021C0
 416000: system.cpu.l1i.prefetcher: Spatial Region address:        0X4
 416000: system.cpu.l1i.prefetcher: Spatial Region physical address:     0X21C0
 416000: system.cpu.l1i.prefetcher: Spatial Region offset:        0X7
 416000: system.cpu.l1i.prefetcher: Created FT entry with:   0x4021c0
 420000: system.cpu.l1d.prefetcher: PC:   0X402151
 420000: system.cpu.l1d.prefetcher: Spatial Region address:      0X180
 420000: system.cpu.l1d.prefetcher: Spatial Region physical address:    0XC06C8
 420000: system.cpu.l1d.prefetcher: Spatial Region offset:       0X1B
 420000: system.cpu.l1d.prefetcher: Created FT entry with:   0x402151
 484000: system.cpu.l1i.prefetcher: PC:   0X401C80
 484000: system.cpu.l1i.prefetcher: Spatial Region address:        0X3
 484000: system.cpu.l1i.prefetcher: Spatial Region physical address:     0X1C80
 484000: system.cpu.l1i.prefetcher: Spatial Region offset:       0X12
 484000: system.cpu.l1i.prefetcher: Created FT entry with:   0x401c80
 582000: system.cpu.l1i.prefetcher: PC:   0X402200
 582000: system.cpu.l1i.prefetcher: Spatial Region address:        0X4
 582000: system.cpu.l1i.prefetcher: Spatial Region physical address:     0X2200
 582000: system.cpu.l1i.prefetcher: Spatial Region offset:        0X8
 582000: system.cpu.l1i.prefetcher: Created FT entry with:   0x402200
 586000: system.cpu.l1d.prefetcher: PC:   0X402173
 586000: system.cpu.l1d.prefetcher: Spatial Region address:      0X183
 586000: system.cpu.l1d.prefetcher: Spatial Region physical address:    0XC1CE8
 586000: system.cpu.l1d.prefetcher: Spatial Region offset:       0X13
 586000: system.cpu.l1d.prefetcher: Created FT entry with:   0x402173
 589000: system.cpu.l1d.prefetcher: PC:   0X40217A
 589000: system.cpu.l1d.prefetcher: Spatial Region address:      0X17D
 589000: system.cpu.l1d.prefetcher: Spatial Region physical address:    0XBEA70
 589000: system.cpu.l1d.prefetcher: Spatial Region offset:        0X9
 589000: system.cpu.l1d.prefetcher: Created FT entry with:   0x40217a
 646000: system.cpu.l1i.prefetcher: PC:   0X402240
 646000: system.cpu.l1i.prefetcher: Spatial Region address:        0X4
 646000: system.cpu.l1i.prefetcher: Spatial Region physical address:     0X2240
 646000: system.cpu.l1i.prefetcher: Spatial Region offset:        0X9
 646000: system.cpu.l1i.prefetcher: Created FT entry with:   0x402240
 710000: system.cpu.l1i.prefetcher: PC:   0X44C410
 710000: system.cpu.l1i.prefetcher: Spatial Region address:       0X98
 710000: system.cpu.l1i.prefetcher: Spatial Region physical address:    0X4C400
 710000: system.cpu.l1i.prefetcher: Spatial Region offset:       0X10
 710000: system.cpu.l1i.prefetcher: Created FT entry with:   0x44c410
 787000: system.cpu.l1i.prefetcher: PC:   0X44C440
 787000: system.cpu.l1i.prefetcher: Spatial Region address:       0X98
 787000: system.cpu.l1i.prefetcher: Spatial Region physical address:    0X4C440
 787000: system.cpu.l1i.prefetcher: Spatial Region offset:       0X11
 787000: system.cpu.l1i.prefetcher: Created FT entry with:   0x44c440
 794000: system.cpu.l1d.prefetcher: PC:   0X44C417
 794000: system.cpu.l1d.prefetcher: Spatial Region address:      0X1A4
 794000: system.cpu.l1d.prefetcher: Spatial Region physical address:    0XD27E0
 794000: system.cpu.l1d.prefetcher: Spatial Region offset:       0X1F
 794000: system.cpu.l1d.prefetcher: Created FT entry with:   0x44c417
 800000: system.cpu.l1d.prefetcher: PC:   0X44C429
 800000: system.cpu.l1d.prefetcher: Spatial Region address:      0X183
 800000: system.cpu.l1d.prefetcher: Spatial Region physical address:    0XC1D00
 800000: system.cpu.l1d.prefetcher: Spatial Region offset:       0X14
 800000: system.cpu.l1d.prefetcher: Created FT entry with:   0x44c429
 851000: system.cpu.l1i.prefetcher: PC:   0X44C480
 851000: system.cpu.l1i.prefetcher: Spatial Region address:       0X98
 851000: system.cpu.l1i.prefetcher: Spatial Region physical address:    0X4C480
 851000: system.cpu.l1i.prefetcher: Spatial Region offset:       0X12
 851000: system.cpu.l1i.prefetcher: Created FT entry with:   0x44c480
 866000: system.cpu.l1d.prefetcher: PC:   0X44C438
 866000: system.cpu.l1d.prefetcher: Spatial Region address:      0X1A5
 866000: system.cpu.l1d.prefetcher: Spatial Region physical address:    0XD2890
 866000: system.cpu.l1d.prefetcher: Spatial Region offset:        0X2
 866000: system.cpu.l1d.prefetcher: Created FT entry with:   0x44c438
 915000: system.cpu.l1i.prefetcher: PC:   0X44C4C0
 915000: system.cpu.l1i.prefetcher: Spatial Region address:       0X98
 915000: system.cpu.l1i.prefetcher: Spatial Region physical address:    0X4C4C0
 915000: system.cpu.l1i.prefetcher: Spatial Region offset:       0X13
 915000: system.cpu.l1i.prefetcher: Created FT entry with:   0x44c4c0
 931000: system.cpu.l1d.prefetcher: PC:   0X44C446
 931000: system.cpu.l1d.prefetcher: Spatial Region address:      0X180
 931000: system.cpu.l1d.prefetcher: Spatial Region physical address:    0XC0118
 931000: system.cpu.l1d.prefetcher: Spatial Region offset:        0X4
 931000: system.cpu.l1d.prefetcher: Created FT entry with:   0x44c446
 979000: system.cpu.l1i.prefetcher: PC:   0X44C500
 979000: system.cpu.l1i.prefetcher: Spatial Region address:       0X98
 979000: system.cpu.l1i.prefetcher: Spatial Region physical address:    0X4C500
 979000: system.cpu.l1i.prefetcher: Spatial Region offset:       0X14
 979000: system.cpu.l1i.prefetcher: Created FT entry with:   0x44c500
 995000: system.cpu.l1d.prefetcher: PC:   0X44C454
 995000: system.cpu.l1d.prefetcher: Spatial Region address:      0X1A5
 995000: system.cpu.l1d.prefetcher: Spatial Region physical address:    0XD2848
 995000: system.cpu.l1d.prefetcher: Spatial Region offset:        0X1
 995000: system.cpu.l1d.prefetcher: Created FT entry with:   0x44c454
1058000: system.cpu.l1d.prefetcher: PC:   0X44C45B
1058000: system.cpu.l1d.prefetcher: Spatial Region address:      0X1A5
1058000: system.cpu.l1d.prefetcher: Spatial Region physical address:    0XD2810
1058000: system.cpu.l1d.prefetcher: Spatial Region offset:          0
1058000: system.cpu.l1d.prefetcher: Created FT entry with:   0x44c45b
1123000: system.cpu.l1d.prefetcher: PC:   0X44C462
1123000: system.cpu.l1d.prefetcher: Spatial Region address:      0X1A7
1123000: system.cpu.l1d.prefetcher: Spatial Region physical address:    0XD3CF8
1123000: system.cpu.l1d.prefetcher: Spatial Region offset:       0X13
1123000: system.cpu.l1d.prefetcher: Created FT entry with:   0x44c462
1124000: system.cpu.l1d.prefetcher: PC:   0X44C467
1124000: system.cpu.l1d.prefetcher: Spatial Region address:      0X1A7
1124000: system.cpu.l1d.prefetcher: Spatial Region physical address:    0XD3CF0
1124000: system.cpu.l1d.prefetcher: Spatial Region offset:       0X13
1124000: system.cpu.l1d.prefetcher: Created FT entry with:   0x44c467
1192000: system.cpu.l1d.prefetcher: PC:   0X44C47B
1192000: system.cpu.l1d.prefetcher: Spatial Region address:      0X17D
1192000: system.cpu.l1d.prefetcher: Spatial Region physical address:    0XBEAA0
1192000: system.cpu.l1d.prefetcher: Spatial Region offset:        0XA
1192000: system.cpu.l1d.prefetcher: Created FT entry with:   0x44c47b
1193000: system.cpu.l1i.prefetcher: PC:   0X44C540
1193000: system.cpu.l1i.prefetcher: Spatial Region address:       0X98
1193000: system.cpu.l1i.prefetcher: Spatial Region physical address:    0X4C540
1193000: system.cpu.l1i.prefetcher: Spatial Region offset:       0X15
1193000: system.cpu.l1i.prefetcher: Created FT entry with:   0x44c540
1286000: system.cpu.l1i.prefetcher: PC:   0X44C580
1286000: system.cpu.l1i.prefetcher: Spatial Region address:       0X98
1286000: system.cpu.l1i.prefetcher: Spatial Region physical address:    0X4C580
1286000: system.cpu.l1i.prefetcher: Spatial Region offset:       0X16
1286000: system.cpu.l1i.prefetcher: Created FT entry with:   0x44c580
1291000: system.cpu.l1d.prefetcher: PC:   0X44C4D4
1291000: system.cpu.l1d.prefetcher: Spatial Region address:      0X1A7
1291000: system.cpu.l1d.prefetcher: Spatial Region physical address:    0XD3CB8
1291000: system.cpu.l1d.prefetcher: Spatial Region offset:       0X12
1291000: system.cpu.l1d.prefetcher: Created FT entry with:   0x44c4d4
1292000: system.cpu.l1d.prefetcher: PC:   0X44C4DB
1292000: system.cpu.l1d.prefetcher: Spatial Region address:      0X1A7
1292000: system.cpu.l1d.prefetcher: Spatial Region physical address:    0XD3CB0
1292000: system.cpu.l1d.prefetcher: Spatial Region offset:       0X12
1292000: system.cpu.l1d.prefetcher: Created FT entry with:   0x44c4db
1356000: system.cpu.l1d.prefetcher: PC:   0X44C4F2
1356000: system.cpu.l1d.prefetcher: Spatial Region address:      0X131
1356000: system.cpu.l1d.prefetcher: Spatial Region physical address:    0X98FB8
1356000: system.cpu.l1d.prefetcher: Spatial Region offset:       0X1E
1356000: system.cpu.l1d.prefetcher: Created FT entry with:   0x44c4f2
1435000: system.cpu.l1i.prefetcher: PC:   0X44C600
1435000: system.cpu.l1i.prefetcher: Spatial Region address:       0X98
1435000: system.cpu.l1i.prefetcher: Spatial Region physical address:    0X4C600
1435000: system.cpu.l1i.prefetcher: Spatial Region offset:       0X18
1435000: system.cpu.l1i.prefetcher: Created FT entry with:   0x44c600
1499000: system.cpu.l1i.prefetcher: PC:   0X44C640
1499000: system.cpu.l1i.prefetcher: Spatial Region address:       0X98
1499000: system.cpu.l1i.prefetcher: Spatial Region physical address:    0X4C640
1499000: system.cpu.l1i.prefetcher: Spatial Region offset:       0X19
1499000: system.cpu.l1i.prefetcher: Created FT entry with:   0x44c640
1572000: system.cpu.l1d.prefetcher: PC:   0X44C4F2
1572000: system.cpu.l1d.prefetcher: Spatial Region address:      0X131
1572000: system.cpu.l1d.prefetcher: Spatial Region physical address:    0X98F74
1572000: system.cpu.l1d.prefetcher: Spatial Region offset:       0X1D
1572000: system.cpu.l1d.prefetcher: Created FT entry with:   0x44c4f2
1638000: system.cpu.l1i.prefetcher: PC:   0X44C6D0
1638000: system.cpu.l1i.prefetcher: Spatial Region address:       0X98
1638000: system.cpu.l1i.prefetcher: Spatial Region physical address:    0X4C6C0
1638000: system.cpu.l1i.prefetcher: Spatial Region offset:       0X1B
1638000: system.cpu.l1i.prefetcher: Created FT entry with:   0x44c6d0
1702000: system.cpu.l1i.prefetcher: PC:   0X44C700
1702000: system.cpu.l1i.prefetcher: Spatial Region address:       0X98
1702000: system.cpu.l1i.prefetcher: Spatial Region physical address:    0X4C700
1702000: system.cpu.l1i.prefetcher: Spatial Region offset:       0X1C
1702000: system.cpu.l1i.prefetcher: Created FT entry with:   0x44c700
1711000: system.cpu.l1d.prefetcher: PC:   0X44C6E2
1711000: system.cpu.l1d.prefetcher: Spatial Region address:      0X1A7
1711000: system.cpu.l1d.prefetcher: Spatial Region physical address:    0XD3E80
1711000: system.cpu.l1d.prefetcher: Spatial Region offset:       0X1A
1711000: system.cpu.l1d.prefetcher: Created FT entry with:   0x44c6e2
1766000: system.cpu.l1i.prefetcher: PC:   0X44C740
1766000: system.cpu.l1i.prefetcher: Spatial Region address:       0X98
1766000: system.cpu.l1i.prefetcher: Spatial Region physical address:    0X4C740
1766000: system.cpu.l1i.prefetcher: Spatial Region offset:       0X1D
1766000: system.cpu.l1i.prefetcher: Created FT entry with:   0x44c740
1845000: system.cpu.l1i.prefetcher: PC:   0X44C7A0
1845000: system.cpu.l1i.prefetcher: Spatial Region address:       0X98
1845000: system.cpu.l1i.prefetcher: Spatial Region physical address:    0X4C780
1845000: system.cpu.l1i.prefetcher: Spatial Region offset:       0X1E
1845000: system.cpu.l1i.prefetcher: Created FT entry with:   0x44c7a0
1909000: system.cpu.l1i.prefetcher: PC:   0X44C7C0
1909000: system.cpu.l1i.prefetcher: Spatial Region address:       0X98
1909000: system.cpu.l1i.prefetcher: Spatial Region physical address:    0X4C7C0
1909000: system.cpu.l1i.prefetcher: Spatial Region offset:       0X1F
1909000: system.cpu.l1i.prefetcher: Created FT entry with:   0x44c7c0
1973000: system.cpu.l1i.prefetcher: PC:   0X44C800
1973000: system.cpu.l1i.prefetcher: Spatial Region address:       0X99
1973000: system.cpu.l1i.prefetcher: Spatial Region physical address:    0X4C800
1973000: system.cpu.l1i.prefetcher: Spatial Region offset:          0
1973000: system.cpu.l1i.prefetcher: Created FT entry with:   0x44c800
2052000: system.cpu.l1i.prefetcher: PC:   0X44C6A8
2052000: system.cpu.l1i.prefetcher: Spatial Region address:       0X98
2052000: system.cpu.l1i.prefetcher: Spatial Region physical address:    0X4C680
2052000: system.cpu.l1i.prefetcher: Spatial Region offset:       0X1A
2052000: system.cpu.l1i.prefetcher: Created FT entry with:   0x44c6a8
2149000: system.cpu.l1i.prefetcher: PC:   0X44C840
2149000: system.cpu.l1i.prefetcher: Spatial Region address:       0X99
2149000: system.cpu.l1i.prefetcher: Spatial Region physical address:    0X4C840
2149000: system.cpu.l1i.prefetcher: Spatial Region offset:        0X1
2149000: system.cpu.l1i.prefetcher: Created FT entry with:   0x44c840
2247000: system.cpu.l1d.prefetcher: PC:   0X44C510
2247000: system.cpu.l1d.prefetcher: Spatial Region address:      0X1A7
2247000: system.cpu.l1d.prefetcher: Spatial Region physical address:    0XD3EC0
2247000: system.cpu.l1d.prefetcher: Spatial Region offset:       0X1B
2247000: system.cpu.l1d.prefetcher: Created FT entry with:   0x44c510
2253000: system.cpu.l1i.prefetcher: PC:   0X44C5C0
2253000: system.cpu.l1i.prefetcher: Spatial Region address:       0X98
2253000: system.cpu.l1i.prefetcher: Spatial Region physical address:    0X4C5C0
2253000: system.cpu.l1i.prefetcher: Spatial Region offset:       0X17
2253000: system.cpu.l1i.prefetcher: Created FT entry with:   0x44c5c0
2344000: system.cpu.l1i.prefetcher: PC:   0X44C880
2344000: system.cpu.l1i.prefetcher: Spatial Region address:       0X99
2344000: system.cpu.l1i.prefetcher: Spatial Region physical address:    0X4C880
2344000: system.cpu.l1i.prefetcher: Spatial Region offset:        0X2
2344000: system.cpu.l1i.prefetcher: Created FT entry with:   0x44c880
2496000: system.cpu.l1d.prefetcher: PC:   0X44C510
2496000: system.cpu.l1d.prefetcher: Spatial Region address:      0X1A7
2496000: system.cpu.l1d.prefetcher: Spatial Region physical address:    0XD3F00
2496000: system.cpu.l1d.prefetcher: Spatial Region offset:       0X1C
2496000: system.cpu.l1d.prefetcher: Created FT entry with:   0x44c510
2684000: system.cpu.l1d.prefetcher: PC:   0X44C723
2684000: system.cpu.l1d.prefetcher: Spatial Region address:      0X1A7
2684000: system.cpu.l1d.prefetcher: Spatial Region physical address:    0XD3F40
2684000: system.cpu.l1d.prefetcher: Spatial Region offset:       0X1D
2684000: system.cpu.l1d.prefetcher: Created FT entry with:   0x44c723
2886000: system.cpu.l1d.prefetcher: PC:   0X44C70B
2886000: system.cpu.l1d.prefetcher: Spatial Region address:      0X1A7
2886000: system.cpu.l1d.prefetcher: Spatial Region physical address:    0XD3F80
2886000: system.cpu.l1d.prefetcher: Spatial Region offset:       0X1E
2886000: system.cpu.l1d.prefetcher: Created FT entry with:   0x44c70b
2978000: system.cpu.l1i.prefetcher: PC:   0X44C8C0
2978000: system.cpu.l1i.prefetcher: Spatial Region address:       0X99
2978000: system.cpu.l1i.prefetcher: Spatial Region physical address:    0X4C8C0
2978000: system.cpu.l1i.prefetcher: Spatial Region offset:        0X3
2978000: system.cpu.l1i.prefetcher: Created FT entry with:   0x44c8c0
3189000: system.cpu.l1i.prefetcher: PC:   0X402280
3189000: system.cpu.l1i.prefetcher: Spatial Region address:        0X4
3189000: system.cpu.l1i.prefetcher: Spatial Region physical address:     0X2280
3189000: system.cpu.l1i.prefetcher: Spatial Region offset:        0XA
3189000: system.cpu.l1i.prefetcher: Created FT entry with:   0x402280
3253000: system.cpu.l1i.prefetcher: PC:   0X44D570
3253000: system.cpu.l1i.prefetcher: Spatial Region address:       0X9A
3253000: system.cpu.l1i.prefetcher: Spatial Region physical address:    0X4D540
3253000: system.cpu.l1i.prefetcher: Spatial Region offset:       0X15
3253000: system.cpu.l1i.prefetcher: Created FT entry with:   0x44d570
3317000: system.cpu.l1i.prefetcher: PC:   0X44D580
3317000: system.cpu.l1i.prefetcher: Spatial Region address:       0X9A
3317000: system.cpu.l1i.prefetcher: Spatial Region physical address:    0X4D580
3317000: system.cpu.l1i.prefetcher: Spatial Region offset:       0X16
3317000: system.cpu.l1i.prefetcher: Created FT entry with:   0x44d580
3395000: system.cpu.l1i.prefetcher: PC:   0X44BE10
3395000: system.cpu.l1i.prefetcher: Spatial Region address:       0X97
3395000: system.cpu.l1i.prefetcher: Spatial Region physical address:    0X4BE00
3395000: system.cpu.l1i.prefetcher: Spatial Region offset:       0X18
3395000: system.cpu.l1i.prefetcher: Created FT entry with:   0x44be10
3472000: system.cpu.l1i.prefetcher: PC:   0X44BE40
3472000: system.cpu.l1i.prefetcher: Spatial Region address:       0X97
3472000: system.cpu.l1i.prefetcher: Spatial Region physical address:    0X4BE40
3472000: system.cpu.l1i.prefetcher: Spatial Region offset:       0X19
3472000: system.cpu.l1i.prefetcher: Created FT entry with:   0x44be40
3536000: system.cpu.l1i.prefetcher: PC:   0X44BE80
3536000: system.cpu.l1i.prefetcher: Spatial Region address:       0X97
3536000: system.cpu.l1i.prefetcher: Spatial Region physical address:    0X4BE80
3536000: system.cpu.l1i.prefetcher: Spatial Region offset:       0X1A
3536000: system.cpu.l1i.prefetcher: Created FT entry with:   0x44be80
3600000: system.cpu.l1i.prefetcher: PC:   0X44BF5A
3600000: system.cpu.l1i.prefetcher: Spatial Region address:       0X97
3600000: system.cpu.l1i.prefetcher: Spatial Region physical address:    0X4BF40
3600000: system.cpu.l1i.prefetcher: Spatial Region offset:       0X1D
3600000: system.cpu.l1i.prefetcher: Created FT entry with:   0x44bf5a
3664000: system.cpu.l1i.prefetcher: PC:   0X44BF80
3664000: system.cpu.l1i.prefetcher: Spatial Region address:       0X97
3664000: system.cpu.l1i.prefetcher: Spatial Region physical address:    0X4BF80
3664000: system.cpu.l1i.prefetcher: Spatial Region offset:       0X1E
3664000: system.cpu.l1i.prefetcher: Created FT entry with:   0x44bf80
3736000: system.cpu.l1d.prefetcher: PC:   0X4021E5
3736000: system.cpu.l1d.prefetcher: Spatial Region address:      0X1A7
3736000: system.cpu.l1d.prefetcher: Spatial Region physical address:    0XD3D4C
3736000: system.cpu.l1d.prefetcher: Spatial Region offset:       0X15
3736000: system.cpu.l1d.prefetcher: Created FT entry with:   0x4021e5
3750000: system.cpu.l1d.prefetcher: PC:   0X4021EF
3750000: system.cpu.l1d.prefetcher: Spatial Region address:      0X1A7
3750000: system.cpu.l1d.prefetcher: Spatial Region physical address:    0XD3D50
3750000: system.cpu.l1d.prefetcher: Spatial Region offset:       0X15
3750000: system.cpu.l1d.prefetcher: Created FT entry with:   0x4021ef
3758000: system.cpu.l1i.prefetcher: PC:   0X4022C0
3758000: system.cpu.l1i.prefetcher: Spatial Region address:        0X4
3758000: system.cpu.l1i.prefetcher: Spatial Region physical address:     0X22C0
3758000: system.cpu.l1i.prefetcher: Spatial Region offset:        0XB
3758000: system.cpu.l1i.prefetcher: Created FT entry with:   0x4022c0
3799000: system.cpu.l1d.prefetcher: PC:   0X4021FF
3799000: system.cpu.l1d.prefetcher: Spatial Region address:      0X183
3799000: system.cpu.l1d.prefetcher: Spatial Region physical address:    0XC1D8C
3799000: system.cpu.l1d.prefetcher: Spatial Region offset:       0X16
3799000: system.cpu.l1d.prefetcher: Created FT entry with:   0x4021ff
3822000: system.cpu.l1i.prefetcher: PC:   0X40237D
3822000: system.cpu.l1i.prefetcher: Spatial Region address:        0X4
3822000: system.cpu.l1i.prefetcher: Spatial Region physical address:     0X2340
3822000: system.cpu.l1i.prefetcher: Spatial Region offset:        0XD
3822000: system.cpu.l1i.prefetcher: Created FT entry with:   0x40237d
3886000: system.cpu.l1i.prefetcher: PC:   0X402380
3886000: system.cpu.l1i.prefetcher: Spatial Region address:        0X4
3886000: system.cpu.l1i.prefetcher: Spatial Region physical address:     0X2380
3886000: system.cpu.l1i.prefetcher: Spatial Region offset:        0XE
3886000: system.cpu.l1i.prefetcher: Created FT entry with:   0x402380
3950000: system.cpu.l1i.prefetcher: PC:   0X4023C0
3950000: system.cpu.l1i.prefetcher: Spatial Region address:        0X4
3950000: system.cpu.l1i.prefetcher: Spatial Region physical address:     0X23C0
3950000: system.cpu.l1i.prefetcher: Spatial Region offset:        0XF
3950000: system.cpu.l1i.prefetcher: Created FT entry with:   0x4023c0
4014000: system.cpu.l1i.prefetcher: PC:   0X4028D3
4014000: system.cpu.l1i.prefetcher: Spatial Region address:        0X5
4014000: system.cpu.l1i.prefetcher: Spatial Region physical address:     0X28C0
4014000: system.cpu.l1i.prefetcher: Spatial Region offset:        0X3
4014000: system.cpu.l1i.prefetcher: Created FT entry with:   0x4028d3
4078000: system.cpu.l1i.prefetcher: PC:   0X402900
4078000: system.cpu.l1i.prefetcher: Spatial Region address:        0X5
4078000: system.cpu.l1i.prefetcher: Spatial Region physical address:     0X2900
4078000: system.cpu.l1i.prefetcher: Spatial Region offset:        0X4
4078000: system.cpu.l1i.prefetcher: Created FT entry with:   0x402900
4157000: system.cpu.l1i.prefetcher: PC:   0X401D90
4157000: system.cpu.l1i.prefetcher: Spatial Region address:        0X3
4157000: system.cpu.l1i.prefetcher: Spatial Region physical address:     0X1D80
4157000: system.cpu.l1i.prefetcher: Spatial Region offset:       0X16
4157000: system.cpu.l1i.prefetcher: Created FT entry with:   0x401d90
4248000: system.cpu.l1i.prefetcher: PC:   0X401DC0
4248000: system.cpu.l1i.prefetcher: Spatial Region address:        0X3
4248000: system.cpu.l1i.prefetcher: Spatial Region physical address:     0X1DC0
4248000: system.cpu.l1i.prefetcher: Spatial Region offset:       0X17
4248000: system.cpu.l1i.prefetcher: Created FT entry with:   0x401dc0
4314000: system.cpu.l1i.prefetcher: PC:   0X401E00
4314000: system.cpu.l1i.prefetcher: Spatial Region address:        0X3
4314000: system.cpu.l1i.prefetcher: Spatial Region physical address:     0X1E00
4314000: system.cpu.l1i.prefetcher: Spatial Region offset:       0X18
4314000: system.cpu.l1i.prefetcher: Created FT entry with:   0x401e00
4378000: system.cpu.l1i.prefetcher: PC:   0X401E40
4378000: system.cpu.l1i.prefetcher: Spatial Region address:        0X3
4378000: system.cpu.l1i.prefetcher: Spatial Region physical address:     0X1E40
4378000: system.cpu.l1i.prefetcher: Spatial Region offset:       0X19
4378000: system.cpu.l1i.prefetcher: Created FT entry with:   0x401e40
4446000: system.cpu.l1i.prefetcher: PC:   0X401E80
4446000: system.cpu.l1i.prefetcher: Spatial Region address:        0X3
4446000: system.cpu.l1i.prefetcher: Spatial Region physical address:     0X1E80
4446000: system.cpu.l1i.prefetcher: Spatial Region offset:       0X1A
4446000: system.cpu.l1i.prefetcher: Created FT entry with:   0x401e80
4514000: system.cpu.l1i.prefetcher: PC:   0X401EC0
4514000: system.cpu.l1i.prefetcher: Spatial Region address:        0X3
4514000: system.cpu.l1i.prefetcher: Spatial Region physical address:     0X1EC0
4514000: system.cpu.l1i.prefetcher: Spatial Region offset:       0X1B
4514000: system.cpu.l1i.prefetcher: Created FT entry with:   0x401ec0
4578000: system.cpu.l1i.prefetcher: PC:   0X401F54
4578000: system.cpu.l1i.prefetcher: Spatial Region address:        0X3
4578000: system.cpu.l1i.prefetcher: Spatial Region physical address:     0X1F40
4578000: system.cpu.l1i.prefetcher: Spatial Region offset:       0X1D
4578000: system.cpu.l1i.prefetcher: Created FT entry with:   0x401f54
4642000: system.cpu.l1i.prefetcher: PC:   0X401F80
4642000: system.cpu.l1i.prefetcher: Spatial Region address:        0X3
4642000: system.cpu.l1i.prefetcher: Spatial Region physical address:     0X1F80
4642000: system.cpu.l1i.prefetcher: Spatial Region offset:       0X1E
4642000: system.cpu.l1i.prefetcher: Created FT entry with:   0x401f80
4719000: system.cpu.l1i.prefetcher: PC:   0X402300
4719000: system.cpu.l1i.prefetcher: Spatial Region address:        0X4
4719000: system.cpu.l1i.prefetcher: Spatial Region physical address:     0X2300
4719000: system.cpu.l1i.prefetcher: Spatial Region offset:        0XC
4719000: system.cpu.l1i.prefetcher: Created FT entry with:   0x402300
4824000: system.cpu.l1i.prefetcher: PC:   0X44C3A0
4824000: system.cpu.l1i.prefetcher: Spatial Region address:       0X98
4824000: system.cpu.l1i.prefetcher: Spatial Region physical address:    0X4C380
4824000: system.cpu.l1i.prefetcher: Spatial Region offset:        0XE
4824000: system.cpu.l1i.prefetcher: Created FT entry with:   0x44c3a0
4888000: system.cpu.l1i.prefetcher: PC:   0X44C3C0
4888000: system.cpu.l1i.prefetcher: Spatial Region address:       0X98
4888000: system.cpu.l1i.prefetcher: Spatial Region physical address:    0X4C3C0
4888000: system.cpu.l1i.prefetcher: Spatial Region offset:        0XF
4888000: system.cpu.l1i.prefetcher: Created FT entry with:   0x44c3c0
4896000: system.cpu.l1d.prefetcher: PC:   0X44C3BC
4896000: system.cpu.l1d.prefetcher: Spatial Region address:      0X17C
4896000: system.cpu.l1d.prefetcher: Spatial Region physical address:    0XBE7A8
4896000: system.cpu.l1d.prefetcher: Spatial Region offset:       0X1E
4896000: system.cpu.l1d.prefetcher: Created FT entry with:   0x44c3bc
4958000: system.cpu.l1d.prefetcher: PC:   0X44C3C0
4958000: system.cpu.l1d.prefetcher: Spatial Region address:      0X17C
4958000: system.cpu.l1d.prefetcher: Spatial Region physical address:    0XBE7C0
4958000: system.cpu.l1d.prefetcher: Spatial Region offset:       0X1F
4958000: system.cpu.l1d.prefetcher: Created FT entry with:   0x44c3c0
5090000: system.cpu.l1d.prefetcher: PC:   0X44C3BC
5090000: system.cpu.l1d.prefetcher: Spatial Region address:      0X17C
5090000: system.cpu.l1d.prefetcher: Spatial Region physical address:    0XBE620
5090000: system.cpu.l1d.prefetcher: Spatial Region offset:       0X18
5090000: system.cpu.l1d.prefetcher: Created FT entry with:   0x44c3bc
5180000: system.cpu.l1d.prefetcher: PC:   0X44C3DC
5180000: system.cpu.l1d.prefetcher: Spatial Region address:      0X17C
5180000: system.cpu.l1d.prefetcher: Spatial Region physical address:    0XBE640
5180000: system.cpu.l1d.prefetcher: Spatial Region offset:       0X19
5180000: system.cpu.l1d.prefetcher: Created FT entry with:   0x44c3dc
5268000: system.cpu.l1d.prefetcher: PC:   0X4022B5
5268000: system.cpu.l1d.prefetcher: Spatial Region address:      0X183
5268000: system.cpu.l1d.prefetcher: Spatial Region physical address:    0XC1DC0
5268000: system.cpu.l1d.prefetcher: Spatial Region offset:       0X17
5268000: system.cpu.l1d.prefetcher: Created FT entry with:   0x4022b5
5285000: system.cpu.l1d.prefetcher: PC:   0X44C3BC
5285000: system.cpu.l1d.prefetcher: Spatial Region address:      0X17D
5285000: system.cpu.l1d.prefetcher: Spatial Region physical address:    0XBE888
5285000: system.cpu.l1d.prefetcher: Spatial Region offset:        0X2
5285000: system.cpu.l1d.prefetcher: Created FT entry with:   0x44c3bc
5438000: system.cpu.l1d.prefetcher: PC:   0X44C3BC
5438000: system.cpu.l1d.prefetcher: Spatial Region address:      0X17C
5438000: system.cpu.l1d.prefetcher: Spatial Region physical address:    0XBE4D0
5438000: system.cpu.l1d.prefetcher: Spatial Region offset:       0X13
5438000: system.cpu.l1d.prefetcher: Created FT entry with:   0x44c3bc
5584000: system.cpu.l1d.prefetcher: PC:   0X44C3BC
5584000: system.cpu.l1d.prefetcher: Spatial Region address:      0X17C
5584000: system.cpu.l1d.prefetcher: Spatial Region physical address:    0XBE770
5584000: system.cpu.l1d.prefetcher: Spatial Region offset:       0X1D
5584000: system.cpu.l1d.prefetcher: Created FT entry with:   0x44c3bc
5659000: system.cpu.l1d.prefetcher: PC:   0X44C408
5659000: system.cpu.l1d.prefetcher: Spatial Region address:      0X1A7
5659000: system.cpu.l1d.prefetcher: Spatial Region physical address:    0XD3D80
5659000: system.cpu.l1d.prefetcher: Spatial Region offset:       0X16
5659000: system.cpu.l1d.prefetcher: Created FT entry with:   0x44c408
5785000: system.cpu.l1d.prefetcher: PC:   0X402351
5785000: system.cpu.l1d.prefetcher: Spatial Region address:          0
5785000: system.cpu.l1d.prefetcher: Spatial Region physical address:      0X2E8
5785000: system.cpu.l1d.prefetcher: Spatial Region offset:        0XB
5785000: system.cpu.l1d.prefetcher: Created FT entry with:   0x402351
5799000: system.cpu.l1i.prefetcher: PC:   0X402400
5799000: system.cpu.l1i.prefetcher: Spatial Region address:        0X4
5799000: system.cpu.l1i.prefetcher: Spatial Region physical address:     0X2400
5799000: system.cpu.l1i.prefetcher: Spatial Region offset:       0X10
5799000: system.cpu.l1i.prefetcher: Created FT entry with:   0x402400
5894000: system.cpu.l1i.prefetcher: PC:   0X421980
5894000: system.cpu.l1i.prefetcher: Spatial Region address:       0X43
5894000: system.cpu.l1i.prefetcher: Spatial Region physical address:    0X21980
5894000: system.cpu.l1i.prefetcher: Spatial Region offset:        0X6
5894000: system.cpu.l1i.prefetcher: Created FT entry with:   0x421980
5985000: system.cpu.l1i.prefetcher: PC:   0X4219C0
5985000: system.cpu.l1i.prefetcher: Spatial Region address:       0X43
5985000: system.cpu.l1i.prefetcher: Spatial Region physical address:    0X219C0
5985000: system.cpu.l1i.prefetcher: Spatial Region offset:        0X7
5985000: system.cpu.l1i.prefetcher: Created FT entry with:   0x4219c0
6049000: system.cpu.l1i.prefetcher: PC:   0X421A00
6049000: system.cpu.l1i.prefetcher: Spatial Region address:       0X43
6049000: system.cpu.l1i.prefetcher: Spatial Region physical address:    0X21A00
6049000: system.cpu.l1i.prefetcher: Spatial Region offset:        0X8
6049000: system.cpu.l1i.prefetcher: Created FT entry with:   0x421a00
6122000: system.cpu.l1d.prefetcher: PC:   0X402358
6122000: system.cpu.l1d.prefetcher: Spatial Region address:      0X17E
6122000: system.cpu.l1d.prefetcher: Spatial Region physical address:    0XBF0D0
6122000: system.cpu.l1d.prefetcher: Spatial Region offset:        0X3
6122000: system.cpu.l1d.prefetcher: Created FT entry with:   0x402358
6135000: system.cpu.l1d.prefetcher: PC:   0X402351
6135000: system.cpu.l1d.prefetcher: Spatial Region address:          0
6135000: system.cpu.l1d.prefetcher: Spatial Region physical address:      0X300
6135000: system.cpu.l1d.prefetcher: Spatial Region offset:        0XC
6135000: system.cpu.l1d.prefetcher: Updated AGT entry with:          0
6227000: system.cpu.l1i.prefetcher: PC:   0X421AF0
6227000: system.cpu.l1i.prefetcher: Spatial Region address:       0X43
6227000: system.cpu.l1i.prefetcher: Spatial Region physical address:    0X21AC0
6227000: system.cpu.l1i.prefetcher: Spatial Region offset:        0XB
6227000: system.cpu.l1i.prefetcher: Created FT entry with:   0x421af0
6318000: system.cpu.l1i.prefetcher: PC:   0X421B00
6318000: system.cpu.l1i.prefetcher: Spatial Region address:       0X43
6318000: system.cpu.l1i.prefetcher: Spatial Region physical address:    0X21B00
6318000: system.cpu.l1i.prefetcher: Spatial Region offset:        0XC
6318000: system.cpu.l1i.prefetcher: Created FT entry with:   0x421b00
6382000: system.cpu.l1i.prefetcher: PC:   0X421B40
6382000: system.cpu.l1i.prefetcher: Spatial Region address:       0X43
6382000: system.cpu.l1i.prefetcher: Spatial Region physical address:    0X21B40
6382000: system.cpu.l1i.prefetcher: Spatial Region offset:        0XD
6382000: system.cpu.l1i.prefetcher: Created FT entry with:   0x421b40
6474000: system.cpu.l1i.prefetcher: PC:   0X484A80
6474000: system.cpu.l1i.prefetcher: Spatial Region address:      0X109
6474000: system.cpu.l1i.prefetcher: Spatial Region physical address:    0X84A80
6474000: system.cpu.l1i.prefetcher: Spatial Region offset:        0XA
6474000: system.cpu.l1i.prefetcher: Created FT entry with:   0x484a80
6551000: system.cpu.l1i.prefetcher: PC:   0X484AC0
6551000: system.cpu.l1i.prefetcher: Spatial Region address:      0X109
6551000: system.cpu.l1i.prefetcher: Spatial Region physical address:    0X84AC0
6551000: system.cpu.l1i.prefetcher: Spatial Region offset:        0XB
6551000: system.cpu.l1i.prefetcher: Created FT entry with:   0x484ac0
6643000: system.cpu.l1i.prefetcher: PC:   0X421A90
6643000: system.cpu.l1i.prefetcher: Spatial Region address:       0X43
6643000: system.cpu.l1i.prefetcher: Spatial Region physical address:    0X21A80
6643000: system.cpu.l1i.prefetcher: Spatial Region offset:        0XA
6643000: system.cpu.l1i.prefetcher: Created FT entry with:   0x421a90
6733000: system.cpu.l1d.prefetcher: PC:   0X402358
6733000: system.cpu.l1d.prefetcher: Spatial Region address:      0X17E
6733000: system.cpu.l1d.prefetcher: Spatial Region physical address:    0XBF0B8
6733000: system.cpu.l1d.prefetcher: Spatial Region offset:        0X2
6733000: system.cpu.l1d.prefetcher: Created FT entry with:   0x402358
6734000: system.cpu.l1d.prefetcher: PC:   0X402368
6734000: system.cpu.l1d.prefetcher: Spatial Region address:          0
6734000: system.cpu.l1d.prefetcher: Spatial Region physical address:      0X340
6734000: system.cpu.l1d.prefetcher: Spatial Region offset:        0XD
6734000: system.cpu.l1d.prefetcher: Updated AGT entry with:          0
6839000: system.cpu.l1i.prefetcher: PC:   0X422560
6839000: system.cpu.l1i.prefetcher: Spatial Region address:       0X44
6839000: system.cpu.l1i.prefetcher: Spatial Region physical address:    0X22540
6839000: system.cpu.l1i.prefetcher: Spatial Region offset:       0X15
6839000: system.cpu.l1i.prefetcher: Created FT entry with:   0x422560
6930000: system.cpu.l1i.prefetcher: PC:   0X422580
6930000: system.cpu.l1i.prefetcher: Spatial Region address:       0X44
6930000: system.cpu.l1i.prefetcher: Spatial Region physical address:    0X22580
6930000: system.cpu.l1i.prefetcher: Spatial Region offset:       0X16
6930000: system.cpu.l1i.prefetcher: Created FT entry with:   0x422580
6994000: system.cpu.l1i.prefetcher: PC:   0X4225C0
6994000: system.cpu.l1i.prefetcher: Spatial Region address:       0X44
6994000: system.cpu.l1i.prefetcher: Spatial Region physical address:    0X225C0
6994000: system.cpu.l1i.prefetcher: Spatial Region offset:       0X17
6994000: system.cpu.l1i.prefetcher: Created FT entry with:   0x4225c0
7062000: system.cpu.l1i.prefetcher: PC:   0X422600
7062000: system.cpu.l1i.prefetcher: Spatial Region address:       0X44
7062000: system.cpu.l1i.prefetcher: Spatial Region physical address:    0X22600
7062000: system.cpu.l1i.prefetcher: Spatial Region offset:       0X18
7062000: system.cpu.l1i.prefetcher: Created FT entry with:   0x422600
7128000: system.cpu.l1i.prefetcher: PC:   0X422640
7128000: system.cpu.l1i.prefetcher: Spatial Region address:       0X44
7128000: system.cpu.l1i.prefetcher: Spatial Region physical address:    0X22640
7128000: system.cpu.l1i.prefetcher: Spatial Region offset:       0X19
7128000: system.cpu.l1i.prefetcher: Created FT entry with:   0x422640
7220000: system.cpu.l1i.prefetcher: PC:   0X484D20
7220000: system.cpu.l1i.prefetcher: Spatial Region address:      0X109
7220000: system.cpu.l1i.prefetcher: Spatial Region physical address:    0X84D00
7220000: system.cpu.l1i.prefetcher: Spatial Region offset:       0X14
7220000: system.cpu.l1i.prefetcher: Created FT entry with:   0x484d20
7284000: system.cpu.l1i.prefetcher: PC:   0X484D40
7284000: system.cpu.l1i.prefetcher: Spatial Region address:      0X109
7284000: system.cpu.l1i.prefetcher: Spatial Region physical address:    0X84D40
7284000: system.cpu.l1i.prefetcher: Spatial Region offset:       0X15
7284000: system.cpu.l1i.prefetcher: Created FT entry with:   0x484d40
7348000: system.cpu.l1i.prefetcher: PC:   0X484D80
7348000: system.cpu.l1i.prefetcher: Spatial Region address:      0X109
7348000: system.cpu.l1i.prefetcher: Spatial Region physical address:    0X84D80
7348000: system.cpu.l1i.prefetcher: Spatial Region offset:       0X16
7348000: system.cpu.l1i.prefetcher: Created FT entry with:   0x484d80
7416000: system.cpu.l1i.prefetcher: PC:   0X484DC0
7416000: system.cpu.l1i.prefetcher: Spatial Region address:      0X109
7416000: system.cpu.l1i.prefetcher: Spatial Region physical address:    0X84DC0
7416000: system.cpu.l1i.prefetcher: Spatial Region offset:       0X17
7416000: system.cpu.l1i.prefetcher: Created FT entry with:   0x484dc0
7512000: system.cpu.l1i.prefetcher: PC:   0X421A40
7512000: system.cpu.l1i.prefetcher: Spatial Region address:       0X43
7512000: system.cpu.l1i.prefetcher: Spatial Region physical address:    0X21A40
7512000: system.cpu.l1i.prefetcher: Spatial Region offset:        0X9
7512000: system.cpu.l1i.prefetcher: Created FT entry with:   0x421a40
7613000: system.cpu.l1d.prefetcher: PC:   0X402368
7613000: system.cpu.l1d.prefetcher: Spatial Region address:          0
7613000: system.cpu.l1d.prefetcher: Spatial Region physical address:      0X388
7613000: system.cpu.l1d.prefetcher: Spatial Region offset:        0XE
7613000: system.cpu.l1d.prefetcher: Updated AGT entry with:          0
7614000: system.cpu.l1d.prefetcher: PC:   0X40236C
7614000: system.cpu.l1d.prefetcher: Spatial Region address:          0
7614000: system.cpu.l1d.prefetcher: Spatial Region physical address:      0X380
7614000: system.cpu.l1d.prefetcher: Spatial Region offset:        0XE
7614000: system.cpu.l1d.prefetcher: Updated AGT entry with:          0
7718000: system.cpu.l1i.prefetcher: PC:   0X470140
7718000: system.cpu.l1i.prefetcher: Spatial Region address:       0XE0
7718000: system.cpu.l1i.prefetcher: Spatial Region physical address:    0X70140
7718000: system.cpu.l1i.prefetcher: Spatial Region offset:        0X5
7718000: system.cpu.l1i.prefetcher: Created FT entry with:   0x470140
7795000: system.cpu.l1i.prefetcher: PC:   0X470180
7795000: system.cpu.l1i.prefetcher: Spatial Region address:       0XE0
7795000: system.cpu.l1i.prefetcher: Spatial Region physical address:    0X70180
7795000: system.cpu.l1i.prefetcher: Spatial Region offset:        0X6
7795000: system.cpu.l1i.prefetcher: Created FT entry with:   0x470180
8125000: system.cpu.l1i.prefetcher: PC:   0X4701C0
8125000: system.cpu.l1i.prefetcher: Spatial Region address:       0XE0
8125000: system.cpu.l1i.prefetcher: Spatial Region physical address:    0X701C0
8125000: system.cpu.l1i.prefetcher: Spatial Region offset:        0X7
8125000: system.cpu.l1i.prefetcher: Created FT entry with:   0x4701c0
8217000: system.cpu.l1i.prefetcher: PC:   0X4224C0
8217000: system.cpu.l1i.prefetcher: Spatial Region address:       0X44
8217000: system.cpu.l1i.prefetcher: Spatial Region physical address:    0X224C0
8217000: system.cpu.l1i.prefetcher: Spatial Region offset:       0X13
8217000: system.cpu.l1i.prefetcher: Created FT entry with:   0x4224c0
8294000: system.cpu.l1i.prefetcher: PC:   0X422500
8294000: system.cpu.l1i.prefetcher: Spatial Region address:       0X44
8294000: system.cpu.l1i.prefetcher: Spatial Region physical address:    0X22500
8294000: system.cpu.l1i.prefetcher: Spatial Region offset:       0X14
8294000: system.cpu.l1i.prefetcher: Created FT entry with:   0x422500
8405000: system.cpu.l1d.prefetcher: PC:   0X402351
8405000: system.cpu.l1d.prefetcher: Spatial Region address:          0
8405000: system.cpu.l1d.prefetcher: Spatial Region physical address:      0X3C0
8405000: system.cpu.l1d.prefetcher: Spatial Region offset:        0XF
8405000: system.cpu.l1d.prefetcher: Updated AGT entry with:          0
8483000: system.cpu.l1i.prefetcher: PC:   0X484CE0
8483000: system.cpu.l1i.prefetcher: Spatial Region address:      0X109
8483000: system.cpu.l1i.prefetcher: Spatial Region physical address:    0X84CC0
8483000: system.cpu.l1i.prefetcher: Spatial Region offset:       0X13
8483000: system.cpu.l1i.prefetcher: Created FT entry with:   0x484ce0
8608000: system.cpu.l1i.prefetcher: PC:   0X422680
8608000: system.cpu.l1i.prefetcher: Spatial Region address:       0X44
8608000: system.cpu.l1i.prefetcher: Spatial Region physical address:    0X22680
8608000: system.cpu.l1i.prefetcher: Spatial Region offset:       0X1A
8608000: system.cpu.l1i.prefetcher: Created FT entry with:   0x422680
8672000: system.cpu.l1i.prefetcher: PC:   0X4226C0
8672000: system.cpu.l1i.prefetcher: Spatial Region address:       0X44
8672000: system.cpu.l1i.prefetcher: Spatial Region physical address:    0X226C0
8672000: system.cpu.l1i.prefetcher: Spatial Region offset:       0X1B
8672000: system.cpu.l1i.prefetcher: Created FT entry with:   0x4226c0
8740000: system.cpu.l1i.prefetcher: PC:   0X422700
8740000: system.cpu.l1i.prefetcher: Spatial Region address:       0X44
8740000: system.cpu.l1i.prefetcher: Spatial Region physical address:    0X22700
8740000: system.cpu.l1i.prefetcher: Spatial Region offset:       0X1C
8740000: system.cpu.l1i.prefetcher: Created FT entry with:   0x422700
8832000: system.cpu.l1i.prefetcher: PC:   0X422390
8832000: system.cpu.l1i.prefetcher: Spatial Region address:       0X44
8832000: system.cpu.l1i.prefetcher: Spatial Region physical address:    0X22380
8832000: system.cpu.l1i.prefetcher: Spatial Region offset:        0XE
8832000: system.cpu.l1i.prefetcher: Created FT entry with:   0x422390
8896000: system.cpu.l1i.prefetcher: PC:   0X4223C0
8896000: system.cpu.l1i.prefetcher: Spatial Region address:       0X44
8896000: system.cpu.l1i.prefetcher: Spatial Region physical address:    0X223C0
8896000: system.cpu.l1i.prefetcher: Spatial Region offset:        0XF
8896000: system.cpu.l1i.prefetcher: Created FT entry with:   0x4223c0
8960000: system.cpu.l1i.prefetcher: PC:   0X422400
8960000: system.cpu.l1i.prefetcher: Spatial Region address:       0X44
8960000: system.cpu.l1i.prefetcher: Spatial Region physical address:    0X22400
8960000: system.cpu.l1i.prefetcher: Spatial Region offset:       0X10
8960000: system.cpu.l1i.prefetcher: Created FT entry with:   0x422400
9033000: system.cpu.l1d.prefetcher: PC:   0X402358
9033000: system.cpu.l1d.prefetcher: Spatial Region address:      0X17E
9033000: system.cpu.l1d.prefetcher: Spatial Region physical address:    0XBF078
9033000: system.cpu.l1d.prefetcher: Spatial Region offset:        0X1
9033000: system.cpu.l1d.prefetcher: Created FT entry with:   0x402358
9034000: system.cpu.l1d.prefetcher: PC:   0X402368
9034000: system.cpu.l1d.prefetcher: Spatial Region address:          0
9034000: system.cpu.l1d.prefetcher: Spatial Region physical address:      0X400
9034000: system.cpu.l1d.prefetcher: Spatial Region offset:       0X10
9034000: system.cpu.l1d.prefetcher: Updated AGT entry with:          0
9135000: system.cpu.l1i.prefetcher: PC:   0X421B80
9135000: system.cpu.l1i.prefetcher: Spatial Region address:       0X43
9135000: system.cpu.l1i.prefetcher: Spatial Region physical address:    0X21B80
9135000: system.cpu.l1i.prefetcher: Spatial Region offset:        0XE
9135000: system.cpu.l1i.prefetcher: Created FT entry with:   0x421b80
9230000: system.cpu.l1i.prefetcher: PC:   0X421BC0
9230000: system.cpu.l1i.prefetcher: Spatial Region address:       0X43
9230000: system.cpu.l1i.prefetcher: Spatial Region physical address:    0X21BC0
9230000: system.cpu.l1i.prefetcher: Spatial Region offset:        0XF
9230000: system.cpu.l1i.prefetcher: Created FT entry with:   0x421bc0
9322000: system.cpu.l1i.prefetcher: PC:   0X422370
9322000: system.cpu.l1i.prefetcher: Spatial Region address:       0X44
9322000: system.cpu.l1i.prefetcher: Spatial Region physical address:    0X22340
9322000: system.cpu.l1i.prefetcher: Spatial Region offset:        0XD
9322000: system.cpu.l1i.prefetcher: Created FT entry with:   0x422370
9397000: system.cpu.l1i.prefetcher: PC:   0X422440
9397000: system.cpu.l1i.prefetcher: Spatial Region address:       0X44
9397000: system.cpu.l1i.prefetcher: Spatial Region physical address:    0X22440
9397000: system.cpu.l1i.prefetcher: Spatial Region offset:       0X11
9397000: system.cpu.l1i.prefetcher: Created FT entry with:   0x422440
9489000: system.cpu.l1i.prefetcher: PC:   0X46E1E0
9489000: system.cpu.l1i.prefetcher: Spatial Region address:       0XDC
9489000: system.cpu.l1i.prefetcher: Spatial Region physical address:    0X6E1C0
9489000: system.cpu.l1i.prefetcher: Spatial Region offset:        0X7
9489000: system.cpu.l1i.prefetcher: Created FT entry with:   0x46e1e0
9566000: system.cpu.l1i.prefetcher: PC:   0X46E200
9566000: system.cpu.l1i.prefetcher: Spatial Region address:       0XDC
9566000: system.cpu.l1i.prefetcher: Spatial Region physical address:    0X6E200
9566000: system.cpu.l1i.prefetcher: Spatial Region offset:        0X8
9566000: system.cpu.l1i.prefetcher: Created FT entry with:   0x46e200
9630000: system.cpu.l1i.prefetcher: PC:   0X46E240
9630000: system.cpu.l1i.prefetcher: Spatial Region address:       0XDC
9630000: system.cpu.l1i.prefetcher: Spatial Region physical address:    0X6E240
9630000: system.cpu.l1i.prefetcher: Spatial Region offset:        0X9
9630000: system.cpu.l1i.prefetcher: Created FT entry with:   0x46e240
9704000: system.cpu.l1d.prefetcher: PC:   0X402368
9704000: system.cpu.l1d.prefetcher: Spatial Region address:          0
9704000: system.cpu.l1d.prefetcher: Spatial Region physical address:      0X448
9704000: system.cpu.l1d.prefetcher: Spatial Region offset:       0X11
9704000: system.cpu.l1d.prefetcher: Updated AGT entry with:          0
9705000: system.cpu.l1d.prefetcher: PC:   0X40236C
9705000: system.cpu.l1d.prefetcher: Spatial Region address:          0
9705000: system.cpu.l1d.prefetcher: Spatial Region physical address:      0X440
9705000: system.cpu.l1d.prefetcher: Spatial Region offset:       0X11
9705000: system.cpu.l1d.prefetcher: Updated AGT entry with:          0
9809000: system.cpu.l1i.prefetcher: PC:   0X4227D0
9809000: system.cpu.l1i.prefetcher: Spatial Region address:       0X44
9809000: system.cpu.l1i.prefetcher: Spatial Region physical address:    0X227C0
9809000: system.cpu.l1i.prefetcher: Spatial Region offset:       0X1F
9809000: system.cpu.l1i.prefetcher: Created FT entry with:   0x4227d0
9873000: system.cpu.l1i.prefetcher: PC:   0X422800
9873000: system.cpu.l1i.prefetcher: Spatial Region address:       0X45
9873000: system.cpu.l1i.prefetcher: Spatial Region physical address:    0X22800
9873000: system.cpu.l1i.prefetcher: Spatial Region offset:          0
9873000: system.cpu.l1i.prefetcher: Created FT entry with:   0x422800
9937000: system.cpu.l1i.prefetcher: PC:   0X422840
9937000: system.cpu.l1i.prefetcher: Spatial Region address:       0X45
9937000: system.cpu.l1i.prefetcher: Spatial Region physical address:    0X22840
9937000: system.cpu.l1i.prefetcher: Spatial Region offset:        0X1
9937000: system.cpu.l1i.prefetcher: Created FT entry with:   0x422840
10083000: system.cpu.l1d.prefetcher: PC:   0X402351
10083000: system.cpu.l1d.prefetcher: Spatial Region address:          0
10083000: system.cpu.l1d.prefetcher: Spatial Region physical address:      0X480
10083000: system.cpu.l1d.prefetcher: Spatial Region offset:       0X12
10083000: system.cpu.l1d.prefetcher: Updated AGT entry with:          0
10148000: system.cpu.l1i.prefetcher: PC:   0X46E120
10148000: system.cpu.l1i.prefetcher: Spatial Region address:       0XDC
10148000: system.cpu.l1i.prefetcher: Spatial Region physical address:    0X6E100
10148000: system.cpu.l1i.prefetcher: Spatial Region offset:        0X4
10148000: system.cpu.l1i.prefetcher: Created FT entry with:   0x46e120
10212000: system.cpu.l1i.prefetcher: PC:   0X46E140
10212000: system.cpu.l1i.prefetcher: Spatial Region address:       0XDC
10212000: system.cpu.l1i.prefetcher: Spatial Region physical address:    0X6E140
10212000: system.cpu.l1i.prefetcher: Spatial Region offset:        0X5
10212000: system.cpu.l1i.prefetcher: Created FT entry with:   0x46e140
10276000: system.cpu.l1i.prefetcher: PC:   0X46E180
10276000: system.cpu.l1i.prefetcher: Spatial Region address:       0XDC
10276000: system.cpu.l1i.prefetcher: Spatial Region physical address:    0X6E180
10276000: system.cpu.l1i.prefetcher: Spatial Region offset:        0X6
10276000: system.cpu.l1i.prefetcher: Created FT entry with:   0x46e180
10368000: system.cpu.l1i.prefetcher: PC:   0X46FA30
10368000: system.cpu.l1i.prefetcher: Spatial Region address:       0XDF
10368000: system.cpu.l1i.prefetcher: Spatial Region physical address:    0X6FA00
10368000: system.cpu.l1i.prefetcher: Spatial Region offset:        0X8
10368000: system.cpu.l1i.prefetcher: Created FT entry with:   0x46fa30
10432000: system.cpu.l1i.prefetcher: PC:   0X46FA40
10432000: system.cpu.l1i.prefetcher: Spatial Region address:       0XDF
10432000: system.cpu.l1i.prefetcher: Spatial Region physical address:    0X6FA40
10432000: system.cpu.l1i.prefetcher: Spatial Region offset:        0X9
10432000: system.cpu.l1i.prefetcher: Created FT entry with:   0x46fa40
10496000: system.cpu.l1i.prefetcher: PC:   0X46FA80
10496000: system.cpu.l1i.prefetcher: Spatial Region address:       0XDF
10496000: system.cpu.l1i.prefetcher: Spatial Region physical address:    0X6FA80
10496000: system.cpu.l1i.prefetcher: Spatial Region offset:        0XA
10496000: system.cpu.l1i.prefetcher: Created FT entry with:   0x46fa80
10592000: system.cpu.l1i.prefetcher: PC:   0X422740
10592000: system.cpu.l1i.prefetcher: Spatial Region address:       0X44
10592000: system.cpu.l1i.prefetcher: Spatial Region physical address:    0X22740
10592000: system.cpu.l1i.prefetcher: Spatial Region offset:       0X1D
10592000: system.cpu.l1i.prefetcher: Created FT entry with:   0x422740
10660000: system.cpu.l1i.prefetcher: PC:   0X422780
10660000: system.cpu.l1i.prefetcher: Spatial Region address:       0X44
10660000: system.cpu.l1i.prefetcher: Spatial Region physical address:    0X22780
10660000: system.cpu.l1i.prefetcher: Spatial Region offset:       0X1E
10660000: system.cpu.l1i.prefetcher: Created FT entry with:   0x422780
10751000: system.cpu.l1d.prefetcher: PC:   0X402358
10751000: system.cpu.l1d.prefetcher: Spatial Region address:      0X17E
10751000: system.cpu.l1d.prefetcher: Spatial Region physical address:    0XBF038
10751000: system.cpu.l1d.prefetcher: Spatial Region offset:          0
10751000: system.cpu.l1d.prefetcher: Created FT entry with:   0x402358
10752000: system.cpu.l1d.prefetcher: PC:   0X402368
10752000: system.cpu.l1d.prefetcher: Spatial Region address:          0
10752000: system.cpu.l1d.prefetcher: Spatial Region physical address:      0X4C0
10752000: system.cpu.l1d.prefetcher: Spatial Region offset:       0X13
10752000: system.cpu.l1d.prefetcher: Updated AGT entry with:          0
10852000: system.cpu.l1i.prefetcher: PC:   0X422880
10852000: system.cpu.l1i.prefetcher: Spatial Region address:       0X45
10852000: system.cpu.l1i.prefetcher: Spatial Region physical address:    0X22880
10852000: system.cpu.l1i.prefetcher: Spatial Region offset:        0X2
10852000: system.cpu.l1i.prefetcher: Created FT entry with:   0x422880
10949000: system.cpu.l1i.prefetcher: PC:   0X422480
10949000: system.cpu.l1i.prefetcher: Spatial Region address:       0X44
10949000: system.cpu.l1i.prefetcher: Spatial Region physical address:    0X22480
10949000: system.cpu.l1i.prefetcher: Spatial Region offset:       0X12
10949000: system.cpu.l1i.prefetcher: Created FT entry with:   0x422480
11090000: system.cpu.l1i.prefetcher: PC:   0X46E0E0
11090000: system.cpu.l1i.prefetcher: Spatial Region address:       0XDC
11090000: system.cpu.l1i.prefetcher: Spatial Region physical address:    0X6E0C0
11090000: system.cpu.l1i.prefetcher: Spatial Region offset:        0X3
11090000: system.cpu.l1i.prefetcher: Created FT entry with:   0x46e0e0
11183000: system.cpu.l1d.prefetcher: PC:   0X402368
11183000: system.cpu.l1d.prefetcher: Spatial Region address:          0
11183000: system.cpu.l1d.prefetcher: Spatial Region physical address:      0X508
11183000: system.cpu.l1d.prefetcher: Spatial Region offset:       0X14
11183000: system.cpu.l1d.prefetcher: Updated AGT entry with:          0
11184000: system.cpu.l1d.prefetcher: PC:   0X40236C
11184000: system.cpu.l1d.prefetcher: Spatial Region address:          0
11184000: system.cpu.l1d.prefetcher: Spatial Region physical address:      0X500
11184000: system.cpu.l1d.prefetcher: Spatial Region offset:       0X14
11184000: system.cpu.l1d.prefetcher: Updated AGT entry with:          0
11308000: system.cpu.l1i.prefetcher: PC:   0X40248B
11308000: system.cpu.l1i.prefetcher: Spatial Region address:        0X4
11308000: system.cpu.l1i.prefetcher: Spatial Region physical address:     0X2480
11308000: system.cpu.l1i.prefetcher: Spatial Region offset:       0X12
11308000: system.cpu.l1i.prefetcher: Created FT entry with:   0x40248b
11399000: system.cpu.l1i.prefetcher: PC:   0X4024C0
11399000: system.cpu.l1i.prefetcher: Spatial Region address:        0X4
11399000: system.cpu.l1i.prefetcher: Spatial Region physical address:     0X24C0
11399000: system.cpu.l1i.prefetcher: Spatial Region offset:       0X13
11399000: system.cpu.l1i.prefetcher: Created FT entry with:   0x4024c0
11463000: system.cpu.l1i.prefetcher: PC:   0X402AE0
11463000: system.cpu.l1i.prefetcher: Spatial Region address:        0X5
11463000: system.cpu.l1i.prefetcher: Spatial Region physical address:     0X2AC0
11463000: system.cpu.l1i.prefetcher: Spatial Region offset:        0XB
11463000: system.cpu.l1i.prefetcher: Created FT entry with:   0x402ae0
11527000: system.cpu.l1i.prefetcher: PC:   0X402B00
11527000: system.cpu.l1i.prefetcher: Spatial Region address:        0X5
11527000: system.cpu.l1i.prefetcher: Spatial Region physical address:     0X2B00
11527000: system.cpu.l1i.prefetcher: Spatial Region offset:        0XC
11527000: system.cpu.l1i.prefetcher: Created FT entry with:   0x402b00
11552000: system.cpu.l1d.prefetcher: PC:   0X402AF9
11552000: system.cpu.l1d.prefetcher: Spatial Region address:      0X180
11552000: system.cpu.l1d.prefetcher: Spatial Region physical address:    0XC0180
11552000: system.cpu.l1d.prefetcher: Spatial Region offset:        0X6
11552000: system.cpu.l1d.prefetcher: Created FT entry with:   0x402af9
11591000: system.cpu.l1i.prefetcher: PC:   0X402B40
11591000: system.cpu.l1i.prefetcher: Spatial Region address:        0X5
11591000: system.cpu.l1i.prefetcher: Spatial Region physical address:     0X2B40
11591000: system.cpu.l1i.prefetcher: Spatial Region offset:        0XD
11591000: system.cpu.l1i.prefetcher: Created FT entry with:   0x402b40
11658000: system.cpu.l1i.prefetcher: PC:   0X402B80
11658000: system.cpu.l1i.prefetcher: Spatial Region address:        0X5
11658000: system.cpu.l1i.prefetcher: Spatial Region physical address:     0X2B80
11658000: system.cpu.l1i.prefetcher: Spatial Region offset:        0XE
11658000: system.cpu.l1i.prefetcher: Created FT entry with:   0x402b80
11659000: system.cpu.l1d.prefetcher: PC:   0X402B3D
11659000: system.cpu.l1d.prefetcher: Spatial Region address:          0
11659000: system.cpu.l1d.prefetcher: Spatial Region physical address:       0X40
11659000: system.cpu.l1d.prefetcher: Spatial Region offset:        0X1
11659000: system.cpu.l1d.prefetcher: Updated AGT entry with:          0
11722000: system.cpu.l1i.prefetcher: PC:   0X402BC0
11722000: system.cpu.l1i.prefetcher: Spatial Region address:        0X5
11722000: system.cpu.l1i.prefetcher: Spatial Region physical address:     0X2BC0
11722000: system.cpu.l1i.prefetcher: Spatial Region offset:        0XF
11722000: system.cpu.l1i.prefetcher: Created FT entry with:   0x402bc0
11798000: system.cpu.l1d.prefetcher: PC:   0X402B42
11798000: system.cpu.l1d.prefetcher: Spatial Region address:          0
11798000: system.cpu.l1d.prefetcher: Spatial Region physical address:       0XA8
11798000: system.cpu.l1d.prefetcher: Spatial Region offset:        0X2
11798000: system.cpu.l1d.prefetcher: Updated AGT entry with:          0
11799000: system.cpu.l1d.prefetcher: PC:   0X402B46
11799000: system.cpu.l1d.prefetcher: Spatial Region address:          0
11799000: system.cpu.l1d.prefetcher: Spatial Region physical address:       0XA0
11799000: system.cpu.l1d.prefetcher: Spatial Region offset:        0X2
11799000: system.cpu.l1d.prefetcher: Updated AGT entry with:          0
11800000: system.cpu.l1i.prefetcher: PC:   0X402C00
11800000: system.cpu.l1i.prefetcher: Spatial Region address:        0X5
11800000: system.cpu.l1i.prefetcher: Spatial Region physical address:     0X2C00
11800000: system.cpu.l1i.prefetcher: Spatial Region offset:       0X10
11800000: system.cpu.l1i.prefetcher: Created FT entry with:   0x402c00
11878000: system.cpu.l1d.prefetcher: PC:   0X402B42
11878000: system.cpu.l1d.prefetcher: Spatial Region address:          0
11878000: system.cpu.l1d.prefetcher: Spatial Region physical address:       0XE0
11878000: system.cpu.l1d.prefetcher: Spatial Region offset:        0X3
11878000: system.cpu.l1d.prefetcher: Updated AGT entry with:          0
11879000: system.cpu.l1d.prefetcher: PC:   0X402B46
11879000: system.cpu.l1d.prefetcher: Spatial Region address:          0
11879000: system.cpu.l1d.prefetcher: Spatial Region physical address:       0XD8
11879000: system.cpu.l1d.prefetcher: Spatial Region offset:        0X3
11879000: system.cpu.l1d.prefetcher: Updated AGT entry with:          0
11949000: system.cpu.l1d.prefetcher: PC:   0X402B42
11949000: system.cpu.l1d.prefetcher: Spatial Region address:          0
11949000: system.cpu.l1d.prefetcher: Spatial Region physical address:      0X118
11949000: system.cpu.l1d.prefetcher: Spatial Region offset:        0X4
11949000: system.cpu.l1d.prefetcher: Updated AGT entry with:          0
11950000: system.cpu.l1d.prefetcher: PC:   0X402B46
11950000: system.cpu.l1d.prefetcher: Spatial Region address:          0
11950000: system.cpu.l1d.prefetcher: Spatial Region physical address:      0X110
11950000: system.cpu.l1d.prefetcher: Spatial Region offset:        0X4
11950000: system.cpu.l1d.prefetcher: Updated AGT entry with:          0
12020000: system.cpu.l1d.prefetcher: PC:   0X402B42
12020000: system.cpu.l1d.prefetcher: Spatial Region address:          0
12020000: system.cpu.l1d.prefetcher: Spatial Region physical address:      0X150
12020000: system.cpu.l1d.prefetcher: Spatial Region offset:        0X5
12020000: system.cpu.l1d.prefetcher: Updated AGT entry with:          0
12021000: system.cpu.l1d.prefetcher: PC:   0X402B46
12021000: system.cpu.l1d.prefetcher: Spatial Region address:          0
12021000: system.cpu.l1d.prefetcher: Spatial Region physical address:      0X148
12021000: system.cpu.l1d.prefetcher: Spatial Region offset:        0X5
12021000: system.cpu.l1d.prefetcher: Updated AGT entry with:          0
12091000: system.cpu.l1d.prefetcher: PC:   0X402B42
12091000: system.cpu.l1d.prefetcher: Spatial Region address:          0
12091000: system.cpu.l1d.prefetcher: Spatial Region physical address:      0X188
12091000: system.cpu.l1d.prefetcher: Spatial Region offset:        0X6
12091000: system.cpu.l1d.prefetcher: Updated AGT entry with:          0
12092000: system.cpu.l1d.prefetcher: PC:   0X402B46
12092000: system.cpu.l1d.prefetcher: Spatial Region address:          0
12092000: system.cpu.l1d.prefetcher: Spatial Region physical address:      0X180
12092000: system.cpu.l1d.prefetcher: Spatial Region offset:        0X6
12092000: system.cpu.l1d.prefetcher: Updated AGT entry with:          0
12162000: system.cpu.l1d.prefetcher: PC:   0X402B42
12162000: system.cpu.l1d.prefetcher: Spatial Region address:          0
12162000: system.cpu.l1d.prefetcher: Spatial Region physical address:      0X1C0
12162000: system.cpu.l1d.prefetcher: Spatial Region offset:        0X7
12162000: system.cpu.l1d.prefetcher: Updated AGT entry with:          0
12229000: system.cpu.l1d.prefetcher: PC:   0X402B64
12229000: system.cpu.l1d.prefetcher: Spatial Region address:      0X180
12229000: system.cpu.l1d.prefetcher: Spatial Region physical address:    0XC0220
12229000: system.cpu.l1d.prefetcher: Spatial Region offset:        0X8
12229000: system.cpu.l1d.prefetcher: Created FT entry with:   0x402b64
12392000: system.cpu.l1i.prefetcher: PC:   0X402C40
12392000: system.cpu.l1i.prefetcher: Spatial Region address:        0X5
12392000: system.cpu.l1i.prefetcher: Spatial Region physical address:     0X2C40
12392000: system.cpu.l1i.prefetcher: Spatial Region offset:       0X11
12392000: system.cpu.l1i.prefetcher: Created FT entry with:   0x402c40
12456000: system.cpu.l1i.prefetcher: PC:   0X449250
12456000: system.cpu.l1i.prefetcher: Spatial Region address:       0X92
12456000: system.cpu.l1i.prefetcher: Spatial Region physical address:    0X49240
12456000: system.cpu.l1i.prefetcher: Spatial Region offset:        0X9
12456000: system.cpu.l1i.prefetcher: Created FT entry with:   0x449250
12533000: system.cpu.l1i.prefetcher: PC:   0X449280
12533000: system.cpu.l1i.prefetcher: Spatial Region address:       0X92
12533000: system.cpu.l1i.prefetcher: Spatial Region physical address:    0X49280
12533000: system.cpu.l1i.prefetcher: Spatial Region offset:        0XA
12533000: system.cpu.l1i.prefetcher: Created FT entry with:   0x449280
12544000: system.cpu.l1d.prefetcher: PC:   0X44925E
12544000: system.cpu.l1d.prefetcher: Spatial Region address:      0X183
12544000: system.cpu.l1d.prefetcher: Spatial Region physical address:    0XC1F38
12544000: system.cpu.l1d.prefetcher: Spatial Region offset:       0X1C
12544000: system.cpu.l1d.prefetcher: Created FT entry with:   0x44925e
12597000: system.cpu.l1i.prefetcher: PC:   0X4492C0
12597000: system.cpu.l1i.prefetcher: Spatial Region address:       0X92
12597000: system.cpu.l1i.prefetcher: Spatial Region physical address:    0X492C0
12597000: system.cpu.l1i.prefetcher: Spatial Region offset:        0XB
12597000: system.cpu.l1i.prefetcher: Created FT entry with:   0x4492c0
12665000: system.cpu.l1i.prefetcher: PC:   0X449300
12665000: system.cpu.l1i.prefetcher: Spatial Region address:       0X92
12665000: system.cpu.l1i.prefetcher: Spatial Region physical address:    0X49300
12665000: system.cpu.l1i.prefetcher: Spatial Region offset:        0XC
12665000: system.cpu.l1i.prefetcher: Created FT entry with:   0x449300
12729000: system.cpu.l1i.prefetcher: PC:   0X471550
12729000: system.cpu.l1i.prefetcher: Spatial Region address:       0XE2
12729000: system.cpu.l1i.prefetcher: Spatial Region physical address:    0X71540
12729000: system.cpu.l1i.prefetcher: Spatial Region offset:       0X15
12729000: system.cpu.l1i.prefetcher: Created FT entry with:   0x471550
12793000: system.cpu.l1i.prefetcher: PC:   0X471580
12793000: system.cpu.l1i.prefetcher: Spatial Region address:       0XE2
12793000: system.cpu.l1i.prefetcher: Spatial Region physical address:    0X71580
12793000: system.cpu.l1i.prefetcher: Spatial Region offset:       0X16
12793000: system.cpu.l1i.prefetcher: Created FT entry with:   0x471580
12861000: system.cpu.l1i.prefetcher: PC:   0X4715C0
12861000: system.cpu.l1i.prefetcher: Spatial Region address:       0XE2
12861000: system.cpu.l1i.prefetcher: Spatial Region physical address:    0X715C0
12861000: system.cpu.l1i.prefetcher: Spatial Region offset:       0X17
12861000: system.cpu.l1i.prefetcher: Created FT entry with:   0x4715c0
12935000: system.cpu.l1i.prefetcher: PC:   0X449340
12935000: system.cpu.l1i.prefetcher: Spatial Region address:       0X92
12935000: system.cpu.l1i.prefetcher: Spatial Region physical address:    0X49340
12935000: system.cpu.l1i.prefetcher: Spatial Region offset:        0XD
12935000: system.cpu.l1i.prefetcher: Created FT entry with:   0x449340
13050000: system.cpu.l1i.prefetcher: PC:   0X471600
13050000: system.cpu.l1i.prefetcher: Spatial Region address:       0XE2
13050000: system.cpu.l1i.prefetcher: Spatial Region physical address:    0X71600
13050000: system.cpu.l1i.prefetcher: Spatial Region offset:       0X18
13050000: system.cpu.l1i.prefetcher: Created FT entry with:   0x471600
13123000: system.cpu.l1i.prefetcher: PC:   0X449380
13123000: system.cpu.l1i.prefetcher: Spatial Region address:       0X92
13123000: system.cpu.l1i.prefetcher: Spatial Region physical address:    0X49380
13123000: system.cpu.l1i.prefetcher: Spatial Region offset:        0XE
13123000: system.cpu.l1i.prefetcher: Created FT entry with:   0x449380
13196000: system.cpu.l1d.prefetcher: PC:   0X402BA0
13196000: system.cpu.l1d.prefetcher: Spatial Region address:      0X1A4
13196000: system.cpu.l1d.prefetcher: Spatial Region physical address:    0XD2320
13196000: system.cpu.l1d.prefetcher: Spatial Region offset:        0XC
13196000: system.cpu.l1d.prefetcher: Created FT entry with:   0x402ba0
13250000: system.cpu.l1i.prefetcher: PC:   0X402C80
13250000: system.cpu.l1i.prefetcher: Spatial Region address:        0X5
13250000: system.cpu.l1i.prefetcher: Spatial Region physical address:     0X2C80
13250000: system.cpu.l1i.prefetcher: Spatial Region offset:       0X12
13250000: system.cpu.l1i.prefetcher: Created FT entry with:   0x402c80
13277000: system.cpu.l1d.prefetcher: PC:   0X402BF2
13277000: system.cpu.l1d.prefetcher: Spatial Region address:      0X180
13277000: system.cpu.l1d.prefetcher: Spatial Region physical address:    0XC0670
13277000: system.cpu.l1d.prefetcher: Spatial Region offset:       0X19
13277000: system.cpu.l1d.prefetcher: Created FT entry with:   0x402bf2
13278000: system.cpu.l1d.prefetcher: PC:   0X402BF9
13278000: system.cpu.l1d.prefetcher: Spatial Region address:      0X1A4
13278000: system.cpu.l1d.prefetcher: Spatial Region physical address:    0XD2340
13278000: system.cpu.l1d.prefetcher: Spatial Region offset:        0XD
13278000: system.cpu.l1d.prefetcher: Updated AGT entry with:          0
13314000: system.cpu.l1i.prefetcher: PC:   0X401060
13314000: system.cpu.l1i.prefetcher: Spatial Region address:        0X2
13314000: system.cpu.l1i.prefetcher: Spatial Region physical address:     0X1040
13314000: system.cpu.l1i.prefetcher: Spatial Region offset:        0X1
13314000: system.cpu.l1i.prefetcher: Created FT entry with:   0x401060
13340000: system.cpu.l1d.prefetcher: PC:   0X402C00
13340000: system.cpu.l1d.prefetcher: Spatial Region address:      0X1A4
13340000: system.cpu.l1d.prefetcher: Spatial Region physical address:    0XD2348
13340000: system.cpu.l1d.prefetcher: Spatial Region offset:        0XD
13340000: system.cpu.l1d.prefetcher: Updated AGT entry with:          0
13405000: system.cpu.l1i.prefetcher: PC:   0X401080
13405000: system.cpu.l1i.prefetcher: Spatial Region address:        0X2
13405000: system.cpu.l1i.prefetcher: Spatial Region physical address:     0X1080
13405000: system.cpu.l1i.prefetcher: Spatial Region offset:        0X2
13405000: system.cpu.l1i.prefetcher: Created FT entry with:   0x401080
13469000: system.cpu.l1i.prefetcher: PC:   0X445A60
13469000: system.cpu.l1i.prefetcher: Spatial Region address:       0X8B
13469000: system.cpu.l1i.prefetcher: Spatial Region physical address:    0X45A40
13469000: system.cpu.l1i.prefetcher: Spatial Region offset:        0X9
13469000: system.cpu.l1i.prefetcher: Created FT entry with:   0x445a60
13560000: system.cpu.l1i.prefetcher: PC:   0X445A80
13560000: system.cpu.l1i.prefetcher: Spatial Region address:       0X8B
13560000: system.cpu.l1i.prefetcher: Spatial Region physical address:    0X45A80
13560000: system.cpu.l1i.prefetcher: Spatial Region offset:        0XA
13560000: system.cpu.l1i.prefetcher: Created FT entry with:   0x445a80
13569000: system.cpu.l1d.prefetcher: PC:   0X445A7B
13569000: system.cpu.l1d.prefetcher: Spatial Region address:      0X178
13569000: system.cpu.l1d.prefetcher: Spatial Region physical address:    0XBC0C0
13569000: system.cpu.l1d.prefetcher: Spatial Region offset:        0X3
13569000: system.cpu.l1d.prefetcher: Created FT entry with:   0x445a7b
13570000: system.cpu.l1d.prefetcher: PC:   0X445A7B
13570000: system.cpu.l1d.prefetcher: Spatial Region address:      0X178
13570000: system.cpu.l1d.prefetcher: Spatial Region physical address:    0XBC0C8
13570000: system.cpu.l1d.prefetcher: Spatial Region offset:        0X3
13570000: system.cpu.l1d.prefetcher: Updated AGT entry with:          0
13624000: system.cpu.l1i.prefetcher: PC:   0X445AC0
13624000: system.cpu.l1i.prefetcher: Spatial Region address:       0X8B
13624000: system.cpu.l1i.prefetcher: Spatial Region physical address:    0X45AC0
13624000: system.cpu.l1i.prefetcher: Spatial Region offset:        0XB
13624000: system.cpu.l1i.prefetcher: Created FT entry with:   0x445ac0
13693000: system.cpu.l1i.prefetcher: PC:   0X445B00
13693000: system.cpu.l1i.prefetcher: Spatial Region address:       0X8B
13693000: system.cpu.l1i.prefetcher: Spatial Region physical address:    0X45B00
13693000: system.cpu.l1i.prefetcher: Spatial Region offset:        0XC
13693000: system.cpu.l1i.prefetcher: Created FT entry with:   0x445b00
13694000: system.cpu.l1d.prefetcher: PC:   0X445A83
13694000: system.cpu.l1d.prefetcher: Spatial Region address:      0X1AB
13694000: system.cpu.l1d.prefetcher: Spatial Region physical address:    0XD5820
13694000: system.cpu.l1d.prefetcher: Spatial Region offset:          0
13694000: system.cpu.l1d.prefetcher: Created FT entry with:   0x445a83
13695000: system.cpu.l1d.prefetcher: PC:   0X445A83
13695000: system.cpu.l1d.prefetcher: Spatial Region address:      0X1AB
13695000: system.cpu.l1d.prefetcher: Spatial Region physical address:    0XD5828
13695000: system.cpu.l1d.prefetcher: Spatial Region offset:          0
13695000: system.cpu.l1d.prefetcher: Created FT entry with:   0x445a83
13783000: system.cpu.l1i.prefetcher: PC:   0X402CC0
13783000: system.cpu.l1i.prefetcher: Spatial Region address:        0X5
13783000: system.cpu.l1i.prefetcher: Spatial Region physical address:     0X2CC0
13783000: system.cpu.l1i.prefetcher: Spatial Region offset:       0X13
13783000: system.cpu.l1i.prefetcher: Created FT entry with:   0x402cc0
13786000: system.cpu.l1d.prefetcher: PC:   0X402C25
13786000: system.cpu.l1d.prefetcher: Spatial Region address:      0X1AB
13786000: system.cpu.l1d.prefetcher: Spatial Region physical address:    0XD5888
13786000: system.cpu.l1d.prefetcher: Spatial Region offset:        0X2
13786000: system.cpu.l1d.prefetcher: Created FT entry with:   0x402c25
13789000: system.cpu.l1d.prefetcher: PC:   0X402C2E
13789000: system.cpu.l1d.prefetcher: Spatial Region address:      0X1AB
13789000: system.cpu.l1d.prefetcher: Spatial Region physical address:    0XD5880
13789000: system.cpu.l1d.prefetcher: Spatial Region offset:        0X2
13789000: system.cpu.l1d.prefetcher: Updated AGT entry with:          0
13856000: system.cpu.l1i.prefetcher: PC:   0X402D00
13856000: system.cpu.l1i.prefetcher: Spatial Region address:        0X5
13856000: system.cpu.l1i.prefetcher: Spatial Region physical address:     0X2D00
13856000: system.cpu.l1i.prefetcher: Spatial Region offset:       0X14
13856000: system.cpu.l1i.prefetcher: Created FT entry with:   0x402d00
13934000: system.cpu.l1d.prefetcher: PC:   0X402C64
13934000: system.cpu.l1d.prefetcher: Spatial Region address:      0X1A4
13934000: system.cpu.l1d.prefetcher: Spatial Region physical address:    0XD2720
13934000: system.cpu.l1d.prefetcher: Spatial Region offset:       0X1C
13934000: system.cpu.l1d.prefetcher: Updated AGT entry with:          0
13943000: system.cpu.l1d.prefetcher: PC:   0X402C8F
13943000: system.cpu.l1d.prefetcher: Spatial Region address:      0X182
13943000: system.cpu.l1d.prefetcher: Spatial Region physical address:    0XC12B8
13943000: system.cpu.l1d.prefetcher: Spatial Region offset:        0XA
13943000: system.cpu.l1d.prefetcher: Created FT entry with:   0x402c8f
13943000: system.cpu.l1i.prefetcher: PC:   0X402D40
13943000: system.cpu.l1i.prefetcher: Spatial Region address:        0X5
13943000: system.cpu.l1i.prefetcher: Spatial Region physical address:     0X2D40
13943000: system.cpu.l1i.prefetcher: Spatial Region offset:       0X15
13943000: system.cpu.l1i.prefetcher: Created FT entry with:   0x402d40
14000000: system.cpu.l1d.prefetcher: PC:   0X402CB5
14000000: system.cpu.l1d.prefetcher: Spatial Region address:      0X182
14000000: system.cpu.l1d.prefetcher: Spatial Region physical address:    0XC1290
14000000: system.cpu.l1d.prefetcher: Spatial Region offset:        0XA
14000000: system.cpu.l1d.prefetcher: Created FT entry with:   0x402cb5
14035000: system.cpu.l1i.prefetcher: PC:   0X402D80
14035000: system.cpu.l1i.prefetcher: Spatial Region address:        0X5
14035000: system.cpu.l1i.prefetcher: Spatial Region physical address:     0X2D80
14035000: system.cpu.l1i.prefetcher: Spatial Region offset:       0X16
14035000: system.cpu.l1i.prefetcher: Created FT entry with:   0x402d80
14103000: system.cpu.l1i.prefetcher: PC:   0X402500
14103000: system.cpu.l1i.prefetcher: Spatial Region address:        0X4
14103000: system.cpu.l1i.prefetcher: Spatial Region physical address:     0X2500
14103000: system.cpu.l1i.prefetcher: Spatial Region offset:       0X14
14103000: system.cpu.l1i.prefetcher: Created FT entry with:   0x402500
14109000: system.cpu.l1d.prefetcher: PC:   0X402496
14109000: system.cpu.l1d.prefetcher: Spatial Region address:      0X1AB
14109000: system.cpu.l1d.prefetcher: Spatial Region physical address:    0XD58C8
14109000: system.cpu.l1d.prefetcher: Spatial Region offset:        0X3
14109000: system.cpu.l1d.prefetcher: Updated AGT entry with:          0
14167000: system.cpu.l1i.prefetcher: PC:   0X40270E
14167000: system.cpu.l1i.prefetcher: Spatial Region address:        0X4
14167000: system.cpu.l1i.prefetcher: Spatial Region physical address:     0X2700
14167000: system.cpu.l1i.prefetcher: Spatial Region offset:       0X1C
14167000: system.cpu.l1i.prefetcher: Created FT entry with:   0x40270e
14231000: system.cpu.l1i.prefetcher: PC:   0X402740
14231000: system.cpu.l1i.prefetcher: Spatial Region address:        0X4
14231000: system.cpu.l1i.prefetcher: Spatial Region physical address:     0X2740
14231000: system.cpu.l1i.prefetcher: Spatial Region offset:       0X1D
14231000: system.cpu.l1i.prefetcher: Created FT entry with:   0x402740
14308000: system.cpu.l1i.prefetcher: PC:   0X44E330
14308000: system.cpu.l1i.prefetcher: Spatial Region address:       0X9C
14308000: system.cpu.l1i.prefetcher: Spatial Region physical address:    0X4E300
14308000: system.cpu.l1i.prefetcher: Spatial Region offset:        0XC
14308000: system.cpu.l1i.prefetcher: Created FT entry with:   0x44e330
14399000: system.cpu.l1i.prefetcher: PC:   0X44E340
14399000: system.cpu.l1i.prefetcher: Spatial Region address:       0X9C
14399000: system.cpu.l1i.prefetcher: Spatial Region physical address:    0X4E340
14399000: system.cpu.l1i.prefetcher: Spatial Region offset:        0XD
14399000: system.cpu.l1i.prefetcher: Created FT entry with:   0x44e340
14463000: system.cpu.l1i.prefetcher: PC:   0X44E380
14463000: system.cpu.l1i.prefetcher: Spatial Region address:       0X9C
14463000: system.cpu.l1i.prefetcher: Spatial Region physical address:    0X4E380
14463000: system.cpu.l1i.prefetcher: Spatial Region offset:        0XE
14463000: system.cpu.l1i.prefetcher: Created FT entry with:   0x44e380
14470000: system.cpu.l1d.prefetcher: PC:   0X44E344
14470000: system.cpu.l1d.prefetcher: Spatial Region address:      0X1A7
14470000: system.cpu.l1d.prefetcher: Spatial Region physical address:    0XD3B28
14470000: system.cpu.l1d.prefetcher: Spatial Region offset:        0XC
14470000: system.cpu.l1d.prefetcher: Created FT entry with:   0x44e344
14527000: system.cpu.l1i.prefetcher: PC:   0X471300
14527000: system.cpu.l1i.prefetcher: Spatial Region address:       0XE2
14527000: system.cpu.l1i.prefetcher: Spatial Region physical address:    0X71300
14527000: system.cpu.l1i.prefetcher: Spatial Region offset:        0XC
14527000: system.cpu.l1i.prefetcher: Created FT entry with:   0x471300
14591000: system.cpu.l1i.prefetcher: PC:   0X471340
14591000: system.cpu.l1i.prefetcher: Spatial Region address:       0XE2
14591000: system.cpu.l1i.prefetcher: Spatial Region physical address:    0X71340
[...]
527200000: system.cpu.l1i.prefetcher: Spatial Region offset:       0X1C
527200000: system.cpu.l1i.prefetcher: Created FT entry with:   0x402f00
527264000: system.cpu.l1i.prefetcher: PC:   0X494590
527264000: system.cpu.l1i.prefetcher: Spatial Region address:      0X128
527264000: system.cpu.l1i.prefetcher: Spatial Region physical address:    0X94580
527264000: system.cpu.l1i.prefetcher: Spatial Region offset:       0X16
527264000: system.cpu.l1i.prefetcher: Created FT entry with:   0x494590
527341000: system.cpu.l1i.prefetcher: PC:   0X4945C0
527341000: system.cpu.l1i.prefetcher: Spatial Region address:      0X128
527341000: system.cpu.l1i.prefetcher: Spatial Region physical address:    0X945C0
527341000: system.cpu.l1i.prefetcher: Spatial Region offset:       0X17
527341000: system.cpu.l1i.prefetcher: Created FT entry with:   0x4945c0
527409000: system.cpu.l1i.prefetcher: PC:   0X410000
527409000: system.cpu.l1i.prefetcher: Spatial Region address:       0X20
527409000: system.cpu.l1i.prefetcher: Spatial Region physical address:    0X10000
527409000: system.cpu.l1i.prefetcher: Spatial Region offset:          0
527409000: system.cpu.l1i.prefetcher: Created FT entry with:   0x410000
527530000: system.cpu.l1i.prefetcher: PC:   0X410040
527530000: system.cpu.l1i.prefetcher: Spatial Region address:       0X20
527530000: system.cpu.l1i.prefetcher: Spatial Region physical address:    0X10040
527530000: system.cpu.l1i.prefetcher: Spatial Region offset:        0X1
527530000: system.cpu.l1i.prefetcher: Created FT entry with:   0x410040
527596000: system.cpu.l1i.prefetcher: PC:   0X410080
527596000: system.cpu.l1i.prefetcher: Spatial Region address:       0X20
527596000: system.cpu.l1i.prefetcher: Spatial Region physical address:    0X10080
527596000: system.cpu.l1i.prefetcher: Spatial Region offset:        0X2
527596000: system.cpu.l1i.prefetcher: Created FT entry with:   0x410080
527687000: system.cpu.l1i.prefetcher: PC:   0X4100C0
527687000: system.cpu.l1i.prefetcher: Spatial Region address:       0X20
527687000: system.cpu.l1i.prefetcher: Spatial Region physical address:    0X100C0
527687000: system.cpu.l1i.prefetcher: Spatial Region offset:        0X3
527687000: system.cpu.l1i.prefetcher: Created FT entry with:   0x4100c0
527711000: system.cpu.l1d.prefetcher: PC:   0X4100A8
527711000: system.cpu.l1d.prefetcher: Spatial Region address:      0X182
527711000: system.cpu.l1d.prefetcher: Spatial Region physical address:    0XC1228
527711000: system.cpu.l1d.prefetcher: Spatial Region offset:        0X8
527711000: system.cpu.l1d.prefetcher: Created FT entry with:   0x4100a8
527751000: system.cpu.l1i.prefetcher: PC:   0X410100
527751000: system.cpu.l1i.prefetcher: Spatial Region address:       0X20
527751000: system.cpu.l1i.prefetcher: Spatial Region physical address:    0X10100
527751000: system.cpu.l1i.prefetcher: Spatial Region offset:        0X4
527751000: system.cpu.l1i.prefetcher: Created FT entry with:   0x410100
527815000: system.cpu.l1i.prefetcher: PC:   0X4188A0
527815000: system.cpu.l1i.prefetcher: Spatial Region address:       0X31
527815000: system.cpu.l1i.prefetcher: Spatial Region physical address:    0X18880
527815000: system.cpu.l1i.prefetcher: Spatial Region offset:        0X2
527815000: system.cpu.l1i.prefetcher: Created FT entry with:   0x4188a0
527892000: system.cpu.l1i.prefetcher: PC:   0X4188C0
527892000: system.cpu.l1i.prefetcher: Spatial Region address:       0X31
527892000: system.cpu.l1i.prefetcher: Spatial Region physical address:    0X188C0
527892000: system.cpu.l1i.prefetcher: Spatial Region offset:        0X3
527892000: system.cpu.l1i.prefetcher: Created FT entry with:   0x4188c0
527956000: system.cpu.l1i.prefetcher: PC:   0X418900
527956000: system.cpu.l1i.prefetcher: Spatial Region address:       0X31
527956000: system.cpu.l1i.prefetcher: Spatial Region physical address:    0X18900
527956000: system.cpu.l1i.prefetcher: Spatial Region offset:        0X4
527956000: system.cpu.l1i.prefetcher: Created FT entry with:   0x418900
527964000: system.cpu.l1d.prefetcher: PC:   0X4188C4
527964000: system.cpu.l1d.prefetcher: Spatial Region address:      0X1A7
527964000: system.cpu.l1d.prefetcher: Spatial Region physical address:    0XD3C58
527964000: system.cpu.l1d.prefetcher: Spatial Region offset:       0X11
527964000: system.cpu.l1d.prefetcher: Created FT entry with:   0x4188c4
528020000: system.cpu.l1i.prefetcher: PC:   0X4185A0
528020000: system.cpu.l1i.prefetcher: Spatial Region address:       0X30
528020000: system.cpu.l1i.prefetcher: Spatial Region physical address:    0X18580
528020000: system.cpu.l1i.prefetcher: Spatial Region offset:       0X16
528020000: system.cpu.l1i.prefetcher: Created FT entry with:   0x4185a0
528084000: system.cpu.l1i.prefetcher: PC:   0X4185C0
528084000: system.cpu.l1i.prefetcher: Spatial Region address:       0X30
528084000: system.cpu.l1i.prefetcher: Spatial Region physical address:    0X185C0
528084000: system.cpu.l1i.prefetcher: Spatial Region offset:       0X17
528084000: system.cpu.l1i.prefetcher: Created FT entry with:   0x4185c0
528097000: system.cpu.l1d.prefetcher: PC:   0X4185AA
528097000: system.cpu.l1d.prefetcher: Spatial Region address:      0X1A7
528097000: system.cpu.l1d.prefetcher: Spatial Region physical address:    0XD3C38
528097000: system.cpu.l1d.prefetcher: Spatial Region offset:       0X10
528097000: system.cpu.l1d.prefetcher: Created FT entry with:   0x4185aa
528100000: system.cpu.l1d.prefetcher: PC:   0X4185AC
528100000: system.cpu.l1d.prefetcher: Spatial Region address:      0X1A7
528100000: system.cpu.l1d.prefetcher: Spatial Region physical address:    0XD3C30
528100000: system.cpu.l1d.prefetcher: Spatial Region offset:       0X10
528100000: system.cpu.l1d.prefetcher: Created FT entry with:   0x4185ac
528148000: system.cpu.l1i.prefetcher: PC:   0X418600
528148000: system.cpu.l1i.prefetcher: Spatial Region address:       0X30
528148000: system.cpu.l1i.prefetcher: Spatial Region physical address:    0X18600
528148000: system.cpu.l1i.prefetcher: Spatial Region offset:       0X18
528148000: system.cpu.l1i.prefetcher: Created FT entry with:   0x418600
528212000: system.cpu.l1i.prefetcher: PC:   0X4187D0
528212000: system.cpu.l1i.prefetcher: Spatial Region address:       0X30
528212000: system.cpu.l1i.prefetcher: Spatial Region physical address:    0X187C0
528212000: system.cpu.l1i.prefetcher: Spatial Region offset:       0X1F
528212000: system.cpu.l1i.prefetcher: Created FT entry with:   0x4187d0
528276000: system.cpu.l1i.prefetcher: PC:   0X418800
528276000: system.cpu.l1i.prefetcher: Spatial Region address:       0X31
528276000: system.cpu.l1i.prefetcher: Spatial Region physical address:    0X18800
528276000: system.cpu.l1i.prefetcher: Spatial Region offset:          0
528276000: system.cpu.l1i.prefetcher: Created FT entry with:   0x418800
528282000: system.cpu.l1d.prefetcher: PC:   0X4187D0
528282000: system.cpu.l1d.prefetcher: Spatial Region address:      0X1A7
528282000: system.cpu.l1d.prefetcher: Spatial Region physical address:    0XD3BF8
528282000: system.cpu.l1d.prefetcher: Spatial Region offset:        0XF
528282000: system.cpu.l1d.prefetcher: Created FT entry with:   0x4187d0
528286000: system.cpu.l1d.prefetcher: PC:   0X4187E0
528286000: system.cpu.l1d.prefetcher: Spatial Region address:      0X1A7
528286000: system.cpu.l1d.prefetcher: Spatial Region physical address:    0XD3BF0
528286000: system.cpu.l1d.prefetcher: Spatial Region offset:        0XF
528286000: system.cpu.l1d.prefetcher: Created FT entry with:   0x4187e0
528344000: system.cpu.l1i.prefetcher: PC:   0X418640
528344000: system.cpu.l1i.prefetcher: Spatial Region address:       0X30
528344000: system.cpu.l1i.prefetcher: Spatial Region physical address:    0X18640
528344000: system.cpu.l1i.prefetcher: Spatial Region offset:       0X19
528344000: system.cpu.l1i.prefetcher: Created FT entry with:   0x418640
528348000: system.cpu.l1d.prefetcher: PC:   0X4185EE
528348000: system.cpu.l1d.prefetcher: Spatial Region address:      0X183
528348000: system.cpu.l1d.prefetcher: Spatial Region physical address:    0XC1C58
528348000: system.cpu.l1d.prefetcher: Spatial Region offset:       0X11
528348000: system.cpu.l1d.prefetcher: Created FT entry with:   0x4185ee
528408000: system.cpu.l1i.prefetcher: PC:   0X418680
528408000: system.cpu.l1i.prefetcher: Spatial Region address:       0X30
528408000: system.cpu.l1i.prefetcher: Spatial Region physical address:    0X18680
528408000: system.cpu.l1i.prefetcher: Spatial Region offset:       0X1A
528408000: system.cpu.l1i.prefetcher: Created FT entry with:   0x418680
528442000: system.cpu.l1d.prefetcher: PC:   0X418650
528442000: system.cpu.l1d.prefetcher: Spatial Region address:      0X17E
528442000: system.cpu.l1d.prefetcher: Spatial Region physical address:    0XBF1E0
528442000: system.cpu.l1d.prefetcher: Spatial Region offset:        0X7
528442000: system.cpu.l1d.prefetcher: Created FT entry with:   0x418650
528472000: system.cpu.l1i.prefetcher: PC:   0X4186F4
528472000: system.cpu.l1i.prefetcher: Spatial Region address:       0X30
528472000: system.cpu.l1i.prefetcher: Spatial Region physical address:    0X186C0
528472000: system.cpu.l1i.prefetcher: Spatial Region offset:       0X1B
528472000: system.cpu.l1i.prefetcher: Created FT entry with:   0x4186f4
528536000: system.cpu.l1i.prefetcher: PC:   0X418700
528536000: system.cpu.l1i.prefetcher: Spatial Region address:       0X30
528536000: system.cpu.l1i.prefetcher: Spatial Region physical address:    0X18700
528536000: system.cpu.l1i.prefetcher: Spatial Region offset:       0X1C
528536000: system.cpu.l1i.prefetcher: Created FT entry with:   0x418700
528602000: system.cpu.l1i.prefetcher: PC:   0X418740
528602000: system.cpu.l1i.prefetcher: Spatial Region address:       0X30
528602000: system.cpu.l1i.prefetcher: Spatial Region physical address:    0X18740
528602000: system.cpu.l1i.prefetcher: Spatial Region offset:       0X1D
528602000: system.cpu.l1i.prefetcher: Created FT entry with:   0x418740
528666000: system.cpu.l1i.prefetcher: PC:   0X418780
528666000: system.cpu.l1i.prefetcher: Spatial Region address:       0X30
528666000: system.cpu.l1i.prefetcher: Spatial Region physical address:    0X18780
528666000: system.cpu.l1i.prefetcher: Spatial Region offset:       0X1E
528666000: system.cpu.l1i.prefetcher: Created FT entry with:   0x418780
528669000: system.cpu.l1d.prefetcher: PC:   0X41873D
528669000: system.cpu.l1d.prefetcher: Spatial Region address:      0X17E
528669000: system.cpu.l1d.prefetcher: Spatial Region physical address:    0XBF200
528669000: system.cpu.l1d.prefetcher: Spatial Region offset:        0X8
528669000: system.cpu.l1d.prefetcher: Created FT entry with:   0x41873d
528732000: system.cpu.l1d.prefetcher: PC:   0X41874B
528732000: system.cpu.l1d.prefetcher: Spatial Region address:      0X17E
528732000: system.cpu.l1d.prefetcher: Spatial Region physical address:    0XBF160
528732000: system.cpu.l1d.prefetcher: Spatial Region offset:        0X5
528732000: system.cpu.l1d.prefetcher: Created FT entry with:   0x41874b
528733000: system.cpu.l1d.prefetcher: PC:   0X41874F
528733000: system.cpu.l1d.prefetcher: Spatial Region address:      0X17E
528733000: system.cpu.l1d.prefetcher: Spatial Region physical address:    0XBF168
528733000: system.cpu.l1d.prefetcher: Spatial Region offset:        0X5
528733000: system.cpu.l1d.prefetcher: Created FT entry with:   0x41874f
528826000: system.cpu.l1d.prefetcher: PC:   0X4186EB
528826000: system.cpu.l1d.prefetcher: Spatial Region address:      0X17E
528826000: system.cpu.l1d.prefetcher: Spatial Region physical address:    0XBF1A8
528826000: system.cpu.l1d.prefetcher: Spatial Region offset:        0X6
528826000: system.cpu.l1d.prefetcher: Created FT entry with:   0x4186eb
528892000: system.cpu.l1d.prefetcher: PC:   0X4186FF
528892000: system.cpu.l1d.prefetcher: Spatial Region address:      0X17E
528892000: system.cpu.l1d.prefetcher: Spatial Region physical address:    0XBF320
528892000: system.cpu.l1d.prefetcher: Spatial Region offset:        0XC
528892000: system.cpu.l1d.prefetcher: Created FT entry with:   0x4186ff
528955000: system.cpu.l1d.prefetcher: PC:   0X41873D
528955000: system.cpu.l1d.prefetcher: Spatial Region address:      0X17E
528955000: system.cpu.l1d.prefetcher: Spatial Region physical address:    0XBF3E0
528955000: system.cpu.l1d.prefetcher: Spatial Region offset:        0XF
528955000: system.cpu.l1d.prefetcher: Created FT entry with:   0x41873d
529018000: system.cpu.l1d.prefetcher: PC:   0X41874B
529018000: system.cpu.l1d.prefetcher: Spatial Region address:      0X17E
529018000: system.cpu.l1d.prefetcher: Spatial Region physical address:    0XBF340
529018000: system.cpu.l1d.prefetcher: Spatial Region offset:        0XD
529018000: system.cpu.l1d.prefetcher: Created FT entry with:   0x41874b
529019000: system.cpu.l1d.prefetcher: PC:   0X41874F
529019000: system.cpu.l1d.prefetcher: Spatial Region address:      0X17E
529019000: system.cpu.l1d.prefetcher: Spatial Region physical address:    0XBF348
529019000: system.cpu.l1d.prefetcher: Spatial Region offset:        0XD
529019000: system.cpu.l1d.prefetcher: Created FT entry with:   0x41874f
529110000: system.cpu.l1d.prefetcher: PC:   0X4186EB
529110000: system.cpu.l1d.prefetcher: Spatial Region address:      0X17E
529110000: system.cpu.l1d.prefetcher: Spatial Region physical address:    0XBF388
529110000: system.cpu.l1d.prefetcher: Spatial Region offset:        0XE
529110000: system.cpu.l1d.prefetcher: Created FT entry with:   0x4186eb
529176000: system.cpu.l1d.prefetcher: PC:   0X4186FF
529176000: system.cpu.l1d.prefetcher: Spatial Region address:      0X17E
529176000: system.cpu.l1d.prefetcher: Spatial Region physical address:    0XBF500
529176000: system.cpu.l1d.prefetcher: Spatial Region offset:       0X14
529176000: system.cpu.l1d.prefetcher: Created FT entry with:   0x4186ff
529239000: system.cpu.l1d.prefetcher: PC:   0X41873D
529239000: system.cpu.l1d.prefetcher: Spatial Region address:      0X17E
529239000: system.cpu.l1d.prefetcher: Spatial Region physical address:    0XBF5C0
529239000: system.cpu.l1d.prefetcher: Spatial Region offset:       0X17
529239000: system.cpu.l1d.prefetcher: Created FT entry with:   0x41873d
529334000: system.cpu.l1d.prefetcher: PC:   0X4186EB
529334000: system.cpu.l1d.prefetcher: Spatial Region address:      0X17E
529334000: system.cpu.l1d.prefetcher: Spatial Region physical address:    0XBF568
529334000: system.cpu.l1d.prefetcher: Spatial Region offset:       0X15
529334000: system.cpu.l1d.prefetcher: Created FT entry with:   0x4186eb
529432000: system.cpu.l1i.prefetcher: PC:   0X418840
529432000: system.cpu.l1i.prefetcher: Spatial Region address:       0X31
529432000: system.cpu.l1i.prefetcher: Spatial Region physical address:    0X18840
529432000: system.cpu.l1i.prefetcher: Spatial Region offset:        0X1
529432000: system.cpu.l1i.prefetcher: Created FT entry with:   0x418840
529535000: system.cpu.l1i.prefetcher: PC:   0X418940
529535000: system.cpu.l1i.prefetcher: Spatial Region address:       0X31
529535000: system.cpu.l1i.prefetcher: Spatial Region physical address:    0X18940
529535000: system.cpu.l1i.prefetcher: Spatial Region offset:        0X5
529535000: system.cpu.l1i.prefetcher: Created FT entry with:   0x418940
529848000: system.cpu.l1i.prefetcher: PC:   0X418B18
529848000: system.cpu.l1i.prefetcher: Spatial Region address:       0X31
529848000: system.cpu.l1i.prefetcher: Spatial Region physical address:    0X18B00
529848000: system.cpu.l1i.prefetcher: Spatial Region offset:        0XC
529848000: system.cpu.l1i.prefetcher: Created FT entry with:   0x418b18
529912000: system.cpu.l1i.prefetcher: PC:   0X418B40
529912000: system.cpu.l1i.prefetcher: Spatial Region address:       0X31
529912000: system.cpu.l1i.prefetcher: Spatial Region physical address:    0X18B40
529912000: system.cpu.l1i.prefetcher: Spatial Region offset:        0XD
529912000: system.cpu.l1i.prefetcher: Created FT entry with:   0x418b40
529982000: system.cpu.l1i.prefetcher: PC:   0X418980
529982000: system.cpu.l1i.prefetcher: Spatial Region address:       0X31
529982000: system.cpu.l1i.prefetcher: Spatial Region physical address:    0X18980
529982000: system.cpu.l1i.prefetcher: Spatial Region offset:        0X6
529982000: system.cpu.l1i.prefetcher: Created FT entry with:   0x418980
530050000: system.cpu.l1i.prefetcher: PC:   0X4189C0
530050000: system.cpu.l1i.prefetcher: Spatial Region address:       0X31
530050000: system.cpu.l1i.prefetcher: Spatial Region physical address:    0X189C0
530050000: system.cpu.l1i.prefetcher: Spatial Region offset:        0X7
530050000: system.cpu.l1i.prefetcher: Created FT entry with:   0x4189c0
530124000: system.cpu.l1i.prefetcher: PC:   0X418A00
530124000: system.cpu.l1i.prefetcher: Spatial Region address:       0X31
530124000: system.cpu.l1i.prefetcher: Spatial Region physical address:    0X18A00
530124000: system.cpu.l1i.prefetcher: Spatial Region offset:        0X8
530124000: system.cpu.l1i.prefetcher: Created FT entry with:   0x418a00
530206000: system.cpu.l1d.prefetcher: PC:   0X418978
530206000: system.cpu.l1d.prefetcher: Spatial Region address:      0X17E
530206000: system.cpu.l1d.prefetcher: Spatial Region physical address:    0XBF588
530206000: system.cpu.l1d.prefetcher: Spatial Region offset:       0X16
530206000: system.cpu.l1d.prefetcher: Created FT entry with:   0x418978
530292000: system.cpu.l1i.prefetcher: PC:   0X418A70
530292000: system.cpu.l1i.prefetcher: Spatial Region address:       0X31
530292000: system.cpu.l1i.prefetcher: Spatial Region physical address:    0X18A40
530292000: system.cpu.l1i.prefetcher: Spatial Region offset:        0X9
530292000: system.cpu.l1i.prefetcher: Created FT entry with:   0x418a70
530356000: system.cpu.l1i.prefetcher: PC:   0X418A80
530356000: system.cpu.l1i.prefetcher: Spatial Region address:       0X31
530356000: system.cpu.l1i.prefetcher: Spatial Region physical address:    0X18A80
530356000: system.cpu.l1i.prefetcher: Spatial Region offset:        0XA
530356000: system.cpu.l1i.prefetcher: Created FT entry with:   0x418a80
530420000: system.cpu.l1i.prefetcher: PC:   0X418AC0
530420000: system.cpu.l1i.prefetcher: Spatial Region address:       0X31
530420000: system.cpu.l1i.prefetcher: Spatial Region physical address:    0X18AC0
530420000: system.cpu.l1i.prefetcher: Spatial Region offset:        0XB
530420000: system.cpu.l1i.prefetcher: Created FT entry with:   0x418ac0
530503000: system.cpu.l1i.prefetcher: PC:   0X418B80
530503000: system.cpu.l1i.prefetcher: Spatial Region address:       0X31
530503000: system.cpu.l1i.prefetcher: Spatial Region physical address:    0X18B80
530503000: system.cpu.l1i.prefetcher: Spatial Region offset:        0XE
530503000: system.cpu.l1i.prefetcher: Created FT entry with:   0x418b80
530583000: system.cpu.l1i.prefetcher: PC:   0X447E40
530583000: system.cpu.l1i.prefetcher: Spatial Region address:       0X8F
530583000: system.cpu.l1i.prefetcher: Spatial Region physical address:    0X47E40
530583000: system.cpu.l1i.prefetcher: Spatial Region offset:       0X19
530583000: system.cpu.l1i.prefetcher: Created FT entry with:   0x447e40
530660000: system.cpu.l1i.prefetcher: PC:   0X447E80
530660000: system.cpu.l1i.prefetcher: Spatial Region address:       0X8F
530660000: system.cpu.l1i.prefetcher: Spatial Region physical address:    0X47E80
530660000: system.cpu.l1i.prefetcher: Spatial Region offset:       0X1A
530660000: system.cpu.l1i.prefetcher: Created FT entry with:   0x447e80
530728000: system.cpu.l1i.prefetcher: PC:   0X447EC0
530728000: system.cpu.l1i.prefetcher: Spatial Region address:       0X8F
530728000: system.cpu.l1i.prefetcher: Spatial Region physical address:    0X47EC0
530728000: system.cpu.l1i.prefetcher: Spatial Region offset:       0X1B
530728000: system.cpu.l1i.prefetcher: Created FT entry with:   0x447ec0
Exit Eventexiting with last active thread context
Dump stats at the end of the ROI!
