gem5 Simulator System.  http://gem5.org
gem5 is copyrighted software; use the --copyright option for details.

gem5 version 20.1.0.2
gem5 compiled Dec  8 2021 05:50:25
gem5 started Dec  8 2021 05:51:51
gem5 executing on ARCH-750, pid 996334
command line: /data/home/ycc32/450_project/gem5/build/X86/gem5.opt --debug-flags=HWPrefetch -re --outdir=/data/home/ycc32/450_project/gem5/results/X86/run_micro/DP1f/Minor4/Slow/DDR3_2133_8x8/1GHz gem5-config/run_micro.py Minor4 Slow microbenchmark/DP1f/bench.X86 DDR3_2133_8x8 --clock=1GHz

1GHz CPU speed and DRAM = DDR3_2133_8x8
system.py: init L2 cache with size 1MB
Global frequency set at 1000000000000 ticks per second
   1000: system.cpu.l1i.prefetcher: INSERTENTRY(): spatio_region:        0X3, pc:   0x401bf0, physical addr:     0x1bc0
   1000: system.cpu.l1i.prefetcher: Created FT entry with:   0x401bf0
   1000: system.cpu.l1i.prefetcher: CONGRATS: SUCCESS in inserting new FT entry found!!
  79000: system.cpu.l1i.prefetcher: INSERTENTRY(): spatio_region:        0X3, pc:   0x401c00, physical addr:     0x1c00
  79000: system.cpu.l1i.prefetcher: Created FT entry with:   0x401c00
  79000: system.cpu.l1i.prefetcher: CONGRATS: SUCCESS in inserting new FT entry found!!
  82000: system.cpu.l1d.prefetcher: INSERTENTRY(): spatio_region:      0X1A7, pc:   0x401bf9, physical addr:    0xd3e40
  82000: system.cpu.l1d.prefetcher: Created FT entry with:   0x401bf9
  82000: system.cpu.l1d.prefetcher: CONGRATS: SUCCESS in inserting new FT entry found!!
 143000: system.cpu.l1i.prefetcher: INSERTENTRY(): spatio_region:        0X3, pc:   0x401c40, physical addr:     0x1c40
 143000: system.cpu.l1i.prefetcher: Created FT entry with:   0x401c40
 143000: system.cpu.l1i.prefetcher: CONGRATS: SUCCESS in inserting new FT entry found!!
 163000: system.cpu.l1d.prefetcher: INSERTENTRY(): spatio_region:      0X1A7, pc:   0x401c01, physical addr:    0xd3e38
 163000: system.cpu.l1d.prefetcher: Created FT entry with:   0x401c01
 163000: system.cpu.l1d.prefetcher: CONGRATS: SUCCESS in inserting new FT entry found!!
 166000: system.cpu.l1d.prefetcher: INSERTENTRY(): spatio_region:      0X1A7, pc:   0x401c02, physical addr:    0xd3e30
 166000: system.cpu.l1d.prefetcher: Created FT entry with:   0x401c02
 166000: system.cpu.l1d.prefetcher: CONGRATS: SUCCESS in inserting new FT entry found!!
 207000: system.cpu.l1i.prefetcher: INSERTENTRY(): spatio_region:        0X4, pc:   0x402110, physical addr:     0x2100
 207000: system.cpu.l1i.prefetcher: Created FT entry with:   0x402110
 207000: system.cpu.l1i.prefetcher: CONGRATS: SUCCESS in inserting new FT entry found!!
 284000: system.cpu.l1i.prefetcher: INSERTENTRY(): spatio_region:        0X4, pc:   0x402140, physical addr:     0x2140
 284000: system.cpu.l1i.prefetcher: Created FT entry with:   0x402140
 284000: system.cpu.l1i.prefetcher: CONGRATS: SUCCESS in inserting new FT entry found!!
 304000: system.cpu.l1d.prefetcher: INSERTENTRY(): spatio_region:      0X1A7, pc:   0x40212e, physical addr:    0xd3d30
 304000: system.cpu.l1d.prefetcher: Created FT entry with:   0x40212e
 304000: system.cpu.l1d.prefetcher: CONGRATS: SUCCESS in inserting new FT entry found!!
 307000: system.cpu.l1d.prefetcher: INSERTENTRY(): spatio_region:      0X1A7, pc:   0x40213a, physical addr:    0xd3d38
 307000: system.cpu.l1d.prefetcher: Created FT entry with:   0x40213a
 307000: system.cpu.l1d.prefetcher: CONGRATS: SUCCESS in inserting new FT entry found!!
 348000: system.cpu.l1i.prefetcher: INSERTENTRY(): spatio_region:        0X4, pc:   0x402180, physical addr:     0x2180
 348000: system.cpu.l1i.prefetcher: Created FT entry with:   0x402180
 348000: system.cpu.l1i.prefetcher: CONGRATS: SUCCESS in inserting new FT entry found!!
 416000: system.cpu.l1i.prefetcher: INSERTENTRY(): spatio_region:        0X4, pc:   0x4021c0, physical addr:     0x21c0
 416000: system.cpu.l1i.prefetcher: Created FT entry with:   0x4021c0
 416000: system.cpu.l1i.prefetcher: CONGRATS: SUCCESS in inserting new FT entry found!!
 420000: system.cpu.l1d.prefetcher: INSERTENTRY(): spatio_region:      0X180, pc:   0x402151, physical addr:    0xc06c8
 420000: system.cpu.l1d.prefetcher: Created FT entry with:   0x402151
 420000: system.cpu.l1d.prefetcher: CONGRATS: SUCCESS in inserting new FT entry found!!
 484000: system.cpu.l1i.prefetcher: INSERTENTRY(): spatio_region:        0X3, pc:   0x401c80, physical addr:     0x1c80
 484000: system.cpu.l1i.prefetcher: Created FT entry with:   0x401c80
 484000: system.cpu.l1i.prefetcher: CONGRATS: SUCCESS in inserting new FT entry found!!
 582000: system.cpu.l1i.prefetcher: INSERTENTRY(): spatio_region:        0X4, pc:   0x402200, physical addr:     0x2200
 582000: system.cpu.l1i.prefetcher: Created FT entry with:   0x402200
 582000: system.cpu.l1i.prefetcher: CONGRATS: SUCCESS in inserting new FT entry found!!
 586000: system.cpu.l1d.prefetcher: INSERTENTRY(): spatio_region:      0X183, pc:   0x402173, physical addr:    0xc1ce8
 586000: system.cpu.l1d.prefetcher: Created FT entry with:   0x402173
 586000: system.cpu.l1d.prefetcher: CONGRATS: SUCCESS in inserting new FT entry found!!
 589000: system.cpu.l1d.prefetcher: INSERTENTRY(): spatio_region:      0X17D, pc:   0x40217a, physical addr:    0xbea70
 589000: system.cpu.l1d.prefetcher: Created FT entry with:   0x40217a
 589000: system.cpu.l1d.prefetcher: CONGRATS: SUCCESS in inserting new FT entry found!!
 646000: system.cpu.l1i.prefetcher: INSERTENTRY(): spatio_region:        0X4, pc:   0x402240, physical addr:     0x2240
 646000: system.cpu.l1i.prefetcher: Created FT entry with:   0x402240
 646000: system.cpu.l1i.prefetcher: CONGRATS: SUCCESS in inserting new FT entry found!!
 710000: system.cpu.l1i.prefetcher: INSERTENTRY(): spatio_region:       0X98, pc:   0x44c410, physical addr:    0x4c400
 710000: system.cpu.l1i.prefetcher: Created FT entry with:   0x44c410
 710000: system.cpu.l1i.prefetcher: CONGRATS: SUCCESS in inserting new FT entry found!!
 787000: system.cpu.l1i.prefetcher: INSERTENTRY(): spatio_region:       0X98, pc:   0x44c440, physical addr:    0x4c440
 787000: system.cpu.l1i.prefetcher: Created FT entry with:   0x44c440
 787000: system.cpu.l1i.prefetcher: CONGRATS: SUCCESS in inserting new FT entry found!!
 794000: system.cpu.l1d.prefetcher: INSERTENTRY(): spatio_region:      0X1A4, pc:   0x44c417, physical addr:    0xd27e0
 794000: system.cpu.l1d.prefetcher: Created FT entry with:   0x44c417
 794000: system.cpu.l1d.prefetcher: CONGRATS: SUCCESS in inserting new FT entry found!!
 800000: system.cpu.l1d.prefetcher: INSERTENTRY(): spatio_region:      0X183, pc:   0x44c429, physical addr:    0xc1d00
 800000: system.cpu.l1d.prefetcher: Created FT entry with:   0x44c429
 800000: system.cpu.l1d.prefetcher: CONGRATS: SUCCESS in inserting new FT entry found!!
 851000: system.cpu.l1i.prefetcher: INSERTENTRY(): spatio_region:       0X98, pc:   0x44c480, physical addr:    0x4c480
 851000: system.cpu.l1i.prefetcher: Created FT entry with:   0x44c480
 851000: system.cpu.l1i.prefetcher: CONGRATS: SUCCESS in inserting new FT entry found!!
 866000: system.cpu.l1d.prefetcher: INSERTENTRY(): spatio_region:      0X1A5, pc:   0x44c438, physical addr:    0xd2890
 866000: system.cpu.l1d.prefetcher: Created FT entry with:   0x44c438
 866000: system.cpu.l1d.prefetcher: CONGRATS: SUCCESS in inserting new FT entry found!!
 915000: system.cpu.l1i.prefetcher: INSERTENTRY(): spatio_region:       0X98, pc:   0x44c4c0, physical addr:    0x4c4c0
 915000: system.cpu.l1i.prefetcher: Created FT entry with:   0x44c4c0
 915000: system.cpu.l1i.prefetcher: CONGRATS: SUCCESS in inserting new FT entry found!!
 931000: system.cpu.l1d.prefetcher: INSERTENTRY(): spatio_region:      0X180, pc:   0x44c446, physical addr:    0xc0118
 931000: system.cpu.l1d.prefetcher: Created FT entry with:   0x44c446
 931000: system.cpu.l1d.prefetcher: CONGRATS: SUCCESS in inserting new FT entry found!!
 979000: system.cpu.l1i.prefetcher: INSERTENTRY(): spatio_region:       0X98, pc:   0x44c500, physical addr:    0x4c500
 979000: system.cpu.l1i.prefetcher: Created FT entry with:   0x44c500
 979000: system.cpu.l1i.prefetcher: CONGRATS: SUCCESS in inserting new FT entry found!!
 995000: system.cpu.l1d.prefetcher: INSERTENTRY(): spatio_region:      0X1A5, pc:   0x44c454, physical addr:    0xd2848
 995000: system.cpu.l1d.prefetcher: Created FT entry with:   0x44c454
 995000: system.cpu.l1d.prefetcher: CONGRATS: SUCCESS in inserting new FT entry found!!
1058000: system.cpu.l1d.prefetcher: INSERTENTRY(): spatio_region:      0X1A5, pc:   0x44c45b, physical addr:    0xd2810
1058000: system.cpu.l1d.prefetcher: Created FT entry with:   0x44c45b
1058000: system.cpu.l1d.prefetcher: CONGRATS: SUCCESS in inserting new FT entry found!!
1123000: system.cpu.l1d.prefetcher: INSERTENTRY(): spatio_region:      0X1A7, pc:   0x44c462, physical addr:    0xd3cf8
1123000: system.cpu.l1d.prefetcher: Created FT entry with:   0x44c462
1123000: system.cpu.l1d.prefetcher: CONGRATS: SUCCESS in inserting new FT entry found!!
1124000: system.cpu.l1d.prefetcher: INSERTENTRY(): spatio_region:      0X1A7, pc:   0x44c467, physical addr:    0xd3cf0
1124000: system.cpu.l1d.prefetcher: Created FT entry with:   0x44c467
1124000: system.cpu.l1d.prefetcher: CONGRATS: SUCCESS in inserting new FT entry found!!
1192000: system.cpu.l1d.prefetcher: INSERTENTRY(): spatio_region:      0X17D, pc:   0x44c47b, physical addr:    0xbeaa0
1192000: system.cpu.l1d.prefetcher: Created FT entry with:   0x44c47b
1192000: system.cpu.l1d.prefetcher: CONGRATS: SUCCESS in inserting new FT entry found!!
1193000: system.cpu.l1i.prefetcher: INSERTENTRY(): spatio_region:       0X98, pc:   0x44c540, physical addr:    0x4c540
1193000: system.cpu.l1i.prefetcher: Created FT entry with:   0x44c540
1193000: system.cpu.l1i.prefetcher: CONGRATS: SUCCESS in inserting new FT entry found!!
1286000: system.cpu.l1i.prefetcher: INSERTENTRY(): spatio_region:       0X98, pc:   0x44c580, physical addr:    0x4c580
1286000: system.cpu.l1i.prefetcher: Created FT entry with:   0x44c580
1286000: system.cpu.l1i.prefetcher: CONGRATS: SUCCESS in inserting new FT entry found!!
1291000: system.cpu.l1d.prefetcher: INSERTENTRY(): spatio_region:      0X1A7, pc:   0x44c4d4, physical addr:    0xd3cb8
1291000: system.cpu.l1d.prefetcher: Created FT entry with:   0x44c4d4
1291000: system.cpu.l1d.prefetcher: CONGRATS: SUCCESS in inserting new FT entry found!!
1292000: system.cpu.l1d.prefetcher: INSERTENTRY(): spatio_region:      0X1A7, pc:   0x44c4db, physical addr:    0xd3cb0
1292000: system.cpu.l1d.prefetcher: Created FT entry with:   0x44c4db
1292000: system.cpu.l1d.prefetcher: CONGRATS: SUCCESS in inserting new FT entry found!!
1356000: system.cpu.l1d.prefetcher: INSERTENTRY(): spatio_region:      0X131, pc:   0x44c4f2, physical addr:    0x98fb8
1356000: system.cpu.l1d.prefetcher: Created FT entry with:   0x44c4f2
1356000: system.cpu.l1d.prefetcher: CONGRATS: SUCCESS in inserting new FT entry found!!
1435000: system.cpu.l1i.prefetcher: INSERTENTRY(): spatio_region:       0X98, pc:   0x44c600, physical addr:    0x4c600
1435000: system.cpu.l1i.prefetcher: Created FT entry with:   0x44c600
1435000: system.cpu.l1i.prefetcher: CONGRATS: SUCCESS in inserting new FT entry found!!
1499000: system.cpu.l1i.prefetcher: INSERTENTRY(): spatio_region:       0X98, pc:   0x44c640, physical addr:    0x4c640
1499000: system.cpu.l1i.prefetcher: Created FT entry with:   0x44c640
1499000: system.cpu.l1i.prefetcher: CONGRATS: SUCCESS in inserting new FT entry found!!
1572000: system.cpu.l1d.prefetcher: INSERTENTRY(): spatio_region:      0X131, pc:   0x44c4f2, physical addr:    0x98f74
1572000: system.cpu.l1d.prefetcher: Created FT entry with:   0x44c4f2
1572000: system.cpu.l1d.prefetcher: CONGRATS: SUCCESS in inserting new FT entry found!!
1638000: system.cpu.l1i.prefetcher: INSERTENTRY(): spatio_region:       0X98, pc:   0x44c6d0, physical addr:    0x4c6c0
1638000: system.cpu.l1i.prefetcher: Created FT entry with:   0x44c6d0
1638000: system.cpu.l1i.prefetcher: CONGRATS: SUCCESS in inserting new FT entry found!!
1702000: system.cpu.l1i.prefetcher: INSERTENTRY(): spatio_region:       0X98, pc:   0x44c700, physical addr:    0x4c700
1702000: system.cpu.l1i.prefetcher: Created FT entry with:   0x44c700
1702000: system.cpu.l1i.prefetcher: CONGRATS: SUCCESS in inserting new FT entry found!!
1711000: system.cpu.l1d.prefetcher: INSERTENTRY(): spatio_region:      0X1A7, pc:   0x44c6e2, physical addr:    0xd3e80
1711000: system.cpu.l1d.prefetcher: Created FT entry with:   0x44c6e2
1711000: system.cpu.l1d.prefetcher: CONGRATS: SUCCESS in inserting new FT entry found!!
1766000: system.cpu.l1i.prefetcher: INSERTENTRY(): spatio_region:       0X98, pc:   0x44c740, physical addr:    0x4c740
1766000: system.cpu.l1i.prefetcher: Created FT entry with:   0x44c740
1766000: system.cpu.l1i.prefetcher: CONGRATS: SUCCESS in inserting new FT entry found!!
1845000: system.cpu.l1i.prefetcher: INSERTENTRY(): spatio_region:       0X98, pc:   0x44c7a0, physical addr:    0x4c780
1845000: system.cpu.l1i.prefetcher: Created FT entry with:   0x44c7a0
1845000: system.cpu.l1i.prefetcher: CONGRATS: SUCCESS in inserting new FT entry found!!
1909000: system.cpu.l1i.prefetcher: INSERTENTRY(): spatio_region:       0X98, pc:   0x44c7c0, physical addr:    0x4c7c0
1909000: system.cpu.l1i.prefetcher: Created FT entry with:   0x44c7c0
1909000: system.cpu.l1i.prefetcher: CONGRATS: SUCCESS in inserting new FT entry found!!
1973000: system.cpu.l1i.prefetcher: INSERTENTRY(): spatio_region:       0X99, pc:   0x44c800, physical addr:    0x4c800
1973000: system.cpu.l1i.prefetcher: Created FT entry with:   0x44c800
1973000: system.cpu.l1i.prefetcher: CONGRATS: SUCCESS in inserting new FT entry found!!
2052000: system.cpu.l1i.prefetcher: INSERTENTRY(): spatio_region:       0X98, pc:   0x44c6a8, physical addr:    0x4c680
2052000: system.cpu.l1i.prefetcher: Created FT entry with:   0x44c6a8
2052000: system.cpu.l1i.prefetcher: CONGRATS: SUCCESS in inserting new FT entry found!!
2149000: system.cpu.l1i.prefetcher: INSERTENTRY(): spatio_region:       0X99, pc:   0x44c840, physical addr:    0x4c840
2149000: system.cpu.l1i.prefetcher: Created FT entry with:   0x44c840
2149000: system.cpu.l1i.prefetcher: CONGRATS: SUCCESS in inserting new FT entry found!!
2247000: system.cpu.l1d.prefetcher: INSERTENTRY(): spatio_region:      0X1A7, pc:   0x44c510, physical addr:    0xd3ec0
2247000: system.cpu.l1d.prefetcher: Created FT entry with:   0x44c510
2247000: system.cpu.l1d.prefetcher: CONGRATS: SUCCESS in inserting new FT entry found!!
2253000: system.cpu.l1i.prefetcher: INSERTENTRY(): spatio_region:       0X98, pc:   0x44c5c0, physical addr:    0x4c5c0
2253000: system.cpu.l1i.prefetcher: Created FT entry with:   0x44c5c0
2253000: system.cpu.l1i.prefetcher: CONGRATS: SUCCESS in inserting new FT entry found!!
2344000: system.cpu.l1i.prefetcher: INSERTENTRY(): spatio_region:       0X99, pc:   0x44c880, physical addr:    0x4c880
2344000: system.cpu.l1i.prefetcher: Created FT entry with:   0x44c880
2344000: system.cpu.l1i.prefetcher: CONGRATS: SUCCESS in inserting new FT entry found!!
2496000: system.cpu.l1d.prefetcher: INSERTENTRY(): spatio_region:      0X1A7, pc:   0x44c510, physical addr:    0xd3f00
2496000: system.cpu.l1d.prefetcher: Created FT entry with:   0x44c510
2496000: system.cpu.l1d.prefetcher: CONGRATS: SUCCESS in inserting new FT entry found!!
2684000: system.cpu.l1d.prefetcher: INSERTENTRY(): spatio_region:      0X1A7, pc:   0x44c723, physical addr:    0xd3f40
2684000: system.cpu.l1d.prefetcher: Created FT entry with:   0x44c723
2684000: system.cpu.l1d.prefetcher: CONGRATS: SUCCESS in inserting new FT entry found!!
2886000: system.cpu.l1d.prefetcher: INSERTENTRY(): spatio_region:      0X1A7, pc:   0x44c70b, physical addr:    0xd3f80
2886000: system.cpu.l1d.prefetcher: Created FT entry with:   0x44c70b
2886000: system.cpu.l1d.prefetcher: CONGRATS: SUCCESS in inserting new FT entry found!!
2978000: system.cpu.l1i.prefetcher: INSERTENTRY(): spatio_region:       0X99, pc:   0x44c8c0, physical addr:    0x4c8c0
2978000: system.cpu.l1i.prefetcher: Created FT entry with:   0x44c8c0
2978000: system.cpu.l1i.prefetcher: CONGRATS: SUCCESS in inserting new FT entry found!!
3189000: system.cpu.l1i.prefetcher: INSERTENTRY(): spatio_region:        0X4, pc:   0x402280, physical addr:     0x2280
3189000: system.cpu.l1i.prefetcher: Created FT entry with:   0x402280
3189000: system.cpu.l1i.prefetcher: CONGRATS: SUCCESS in inserting new FT entry found!!
3253000: system.cpu.l1i.prefetcher: INSERTENTRY(): spatio_region:       0X9A, pc:   0x44d570, physical addr:    0x4d540
3253000: system.cpu.l1i.prefetcher: Created FT entry with:   0x44d570
3253000: system.cpu.l1i.prefetcher: CONGRATS: SUCCESS in inserting new FT entry found!!
3317000: system.cpu.l1i.prefetcher: INSERTENTRY(): spatio_region:       0X9A, pc:   0x44d580, physical addr:    0x4d580
3317000: system.cpu.l1i.prefetcher: Created FT entry with:   0x44d580
3317000: system.cpu.l1i.prefetcher: CONGRATS: SUCCESS in inserting new FT entry found!!
3395000: system.cpu.l1i.prefetcher: INSERTENTRY(): spatio_region:       0X97, pc:   0x44be10, physical addr:    0x4be00
3395000: system.cpu.l1i.prefetcher: Created FT entry with:   0x44be10
3395000: system.cpu.l1i.prefetcher: CONGRATS: SUCCESS in inserting new FT entry found!!
3472000: system.cpu.l1i.prefetcher: INSERTENTRY(): spatio_region:       0X97, pc:   0x44be40, physical addr:    0x4be40
3472000: system.cpu.l1i.prefetcher: Created FT entry with:   0x44be40
3472000: system.cpu.l1i.prefetcher: CONGRATS: SUCCESS in inserting new FT entry found!!
3536000: system.cpu.l1i.prefetcher: INSERTENTRY(): spatio_region:       0X97, pc:   0x44be80, physical addr:    0x4be80
3536000: system.cpu.l1i.prefetcher: Created FT entry with:   0x44be80
3536000: system.cpu.l1i.prefetcher: CONGRATS: SUCCESS in inserting new FT entry found!!
3600000: system.cpu.l1i.prefetcher: INSERTENTRY(): spatio_region:       0X97, pc:   0x44bf5a, physical addr:    0x4bf40
3600000: system.cpu.l1i.prefetcher: Created FT entry with:   0x44bf5a
3600000: system.cpu.l1i.prefetcher: CONGRATS: SUCCESS in inserting new FT entry found!!
3664000: system.cpu.l1i.prefetcher: INSERTENTRY(): spatio_region:       0X97, pc:   0x44bf80, physical addr:    0x4bf80
3664000: system.cpu.l1i.prefetcher: Created FT entry with:   0x44bf80
3664000: system.cpu.l1i.prefetcher: CONGRATS: SUCCESS in inserting new FT entry found!!
3736000: system.cpu.l1d.prefetcher: INSERTENTRY(): spatio_region:      0X1A7, pc:   0x4021e5, physical addr:    0xd3d4c
3736000: system.cpu.l1d.prefetcher: Created FT entry with:   0x4021e5
3736000: system.cpu.l1d.prefetcher: CONGRATS: SUCCESS in inserting new FT entry found!!
3750000: system.cpu.l1d.prefetcher: INSERTENTRY(): spatio_region:      0X1A7, pc:   0x4021ef, physical addr:    0xd3d50
3750000: system.cpu.l1d.prefetcher: Created FT entry with:   0x4021ef
3750000: system.cpu.l1d.prefetcher: CONGRATS: SUCCESS in inserting new FT entry found!!
3758000: system.cpu.l1i.prefetcher: INSERTENTRY(): spatio_region:        0X4, pc:   0x4022c0, physical addr:     0x22c0
3758000: system.cpu.l1i.prefetcher: Created FT entry with:   0x4022c0
3758000: system.cpu.l1i.prefetcher: CONGRATS: SUCCESS in inserting new FT entry found!!
3799000: system.cpu.l1d.prefetcher: INSERTENTRY(): spatio_region:      0X183, pc:   0x4021ff, physical addr:    0xc1d8c
3799000: system.cpu.l1d.prefetcher: Created FT entry with:   0x4021ff
3799000: system.cpu.l1d.prefetcher: CONGRATS: SUCCESS in inserting new FT entry found!!
3822000: system.cpu.l1i.prefetcher: INSERTENTRY(): spatio_region:        0X4, pc:   0x40237d, physical addr:     0x2340
3822000: system.cpu.l1i.prefetcher: Created FT entry with:   0x40237d
3822000: system.cpu.l1i.prefetcher: CONGRATS: SUCCESS in inserting new FT entry found!!
3886000: system.cpu.l1i.prefetcher: INSERTENTRY(): spatio_region:        0X4, pc:   0x402380, physical addr:     0x2380
3886000: system.cpu.l1i.prefetcher: Created FT entry with:   0x402380
3886000: system.cpu.l1i.prefetcher: CONGRATS: SUCCESS in inserting new FT entry found!!
3950000: system.cpu.l1i.prefetcher: INSERTENTRY(): spatio_region:        0X4, pc:   0x4023c0, physical addr:     0x23c0
3950000: system.cpu.l1i.prefetcher: Created FT entry with:   0x4023c0
3950000: system.cpu.l1i.prefetcher: CONGRATS: SUCCESS in inserting new FT entry found!!
4014000: system.cpu.l1i.prefetcher: INSERTENTRY(): spatio_region:        0X5, pc:   0x4028d3, physical addr:     0x28c0
4014000: system.cpu.l1i.prefetcher: Created FT entry with:   0x4028d3
4014000: system.cpu.l1i.prefetcher: CONGRATS: SUCCESS in inserting new FT entry found!!
4078000: system.cpu.l1i.prefetcher: INSERTENTRY(): spatio_region:        0X5, pc:   0x402900, physical addr:     0x2900
4078000: system.cpu.l1i.prefetcher: Created FT entry with:   0x402900
4078000: system.cpu.l1i.prefetcher: CONGRATS: SUCCESS in inserting new FT entry found!!
4157000: system.cpu.l1i.prefetcher: INSERTENTRY(): spatio_region:        0X3, pc:   0x401d90, physical addr:     0x1d80
4157000: system.cpu.l1i.prefetcher: Created FT entry with:   0x401d90
4157000: system.cpu.l1i.prefetcher: CONGRATS: SUCCESS in inserting new FT entry found!!
4248000: system.cpu.l1i.prefetcher: INSERTENTRY(): spatio_region:        0X3, pc:   0x401dc0, physical addr:     0x1dc0
4248000: system.cpu.l1i.prefetcher: Created FT entry with:   0x401dc0
4248000: system.cpu.l1i.prefetcher: CONGRATS: SUCCESS in inserting new FT entry found!!
4314000: system.cpu.l1i.prefetcher: INSERTENTRY(): spatio_region:        0X3, pc:   0x401e00, physical addr:     0x1e00
4314000: system.cpu.l1i.prefetcher: Created FT entry with:   0x401e00
4314000: system.cpu.l1i.prefetcher: CONGRATS: SUCCESS in inserting new FT entry found!!
4378000: system.cpu.l1i.prefetcher: INSERTENTRY(): spatio_region:        0X3, pc:   0x401e40, physical addr:     0x1e40
4378000: system.cpu.l1i.prefetcher: Created FT entry with:   0x401e40
4378000: system.cpu.l1i.prefetcher: CONGRATS: SUCCESS in inserting new FT entry found!!
4446000: system.cpu.l1i.prefetcher: INSERTENTRY(): spatio_region:        0X3, pc:   0x401e80, physical addr:     0x1e80
4446000: system.cpu.l1i.prefetcher: Created FT entry with:   0x401e80
4446000: system.cpu.l1i.prefetcher: CONGRATS: SUCCESS in inserting new FT entry found!!
4514000: system.cpu.l1i.prefetcher: INSERTENTRY(): spatio_region:        0X3, pc:   0x401ec0, physical addr:     0x1ec0
4514000: system.cpu.l1i.prefetcher: Created FT entry with:   0x401ec0
4514000: system.cpu.l1i.prefetcher: CONGRATS: SUCCESS in inserting new FT entry found!!
4578000: system.cpu.l1i.prefetcher: INSERTENTRY(): spatio_region:        0X3, pc:   0x401f54, physical addr:     0x1f40
4578000: system.cpu.l1i.prefetcher: Created FT entry with:   0x401f54
4578000: system.cpu.l1i.prefetcher: CONGRATS: SUCCESS in inserting new FT entry found!!
4642000: system.cpu.l1i.prefetcher: INSERTENTRY(): spatio_region:        0X3, pc:   0x401f80, physical addr:     0x1f80
4642000: system.cpu.l1i.prefetcher: Created FT entry with:   0x401f80
4642000: system.cpu.l1i.prefetcher: CONGRATS: SUCCESS in inserting new FT entry found!!
4719000: system.cpu.l1i.prefetcher: INSERTENTRY(): spatio_region:        0X4, pc:   0x402300, physical addr:     0x2300
4719000: system.cpu.l1i.prefetcher: Created FT entry with:   0x402300
4719000: system.cpu.l1i.prefetcher: CONGRATS: SUCCESS in inserting new FT entry found!!
4824000: system.cpu.l1i.prefetcher: INSERTENTRY(): spatio_region:       0X98, pc:   0x44c3a0, physical addr:    0x4c380
4824000: system.cpu.l1i.prefetcher: Created FT entry with:   0x44c3a0
4824000: system.cpu.l1i.prefetcher: CONGRATS: SUCCESS in inserting new FT entry found!!
4888000: system.cpu.l1i.prefetcher: INSERTENTRY(): spatio_region:       0X98, pc:   0x44c3c0, physical addr:    0x4c3c0
4888000: system.cpu.l1i.prefetcher: Created FT entry with:   0x44c3c0
4888000: system.cpu.l1i.prefetcher: CONGRATS: SUCCESS in inserting new FT entry found!!
4896000: system.cpu.l1d.prefetcher: INSERTENTRY(): spatio_region:      0X17C, pc:   0x44c3bc, physical addr:    0xbe7a8
4896000: system.cpu.l1d.prefetcher: Created FT entry with:   0x44c3bc
4896000: system.cpu.l1d.prefetcher: CONGRATS: SUCCESS in inserting new FT entry found!!
4958000: system.cpu.l1d.prefetcher: INSERTENTRY(): spatio_region:      0X17C, pc:   0x44c3c0, physical addr:    0xbe7c0
4958000: system.cpu.l1d.prefetcher: Created FT entry with:   0x44c3c0
4958000: system.cpu.l1d.prefetcher: CONGRATS: SUCCESS in inserting new FT entry found!!
5090000: system.cpu.l1d.prefetcher: INSERTENTRY(): spatio_region:      0X17C, pc:   0x44c3bc, physical addr:    0xbe620
5090000: system.cpu.l1d.prefetcher: Created FT entry with:   0x44c3bc
5090000: system.cpu.l1d.prefetcher: CONGRATS: SUCCESS in inserting new FT entry found!!
5180000: system.cpu.l1d.prefetcher: INSERTENTRY(): spatio_region:      0X17C, pc:   0x44c3dc, physical addr:    0xbe640
5180000: system.cpu.l1d.prefetcher: Created FT entry with:   0x44c3dc
5180000: system.cpu.l1d.prefetcher: CONGRATS: SUCCESS in inserting new FT entry found!!
5268000: system.cpu.l1d.prefetcher: INSERTENTRY(): spatio_region:      0X183, pc:   0x4022b5, physical addr:    0xc1dc0
5268000: system.cpu.l1d.prefetcher: Created FT entry with:   0x4022b5
5268000: system.cpu.l1d.prefetcher: CONGRATS: SUCCESS in inserting new FT entry found!!
5285000: system.cpu.l1d.prefetcher: INSERTENTRY(): spatio_region:      0X17D, pc:   0x44c3bc, physical addr:    0xbe888
5285000: system.cpu.l1d.prefetcher: Created FT entry with:   0x44c3bc
5285000: system.cpu.l1d.prefetcher: CONGRATS: SUCCESS in inserting new FT entry found!!
5438000: system.cpu.l1d.prefetcher: INSERTENTRY(): spatio_region:      0X17C, pc:   0x44c3bc, physical addr:    0xbe4d0
5438000: system.cpu.l1d.prefetcher: Created FT entry with:   0x44c3bc
5438000: system.cpu.l1d.prefetcher: CONGRATS: SUCCESS in inserting new FT entry found!!
5584000: system.cpu.l1d.prefetcher: INSERTENTRY(): spatio_region:      0X17C, pc:   0x44c3bc, physical addr:    0xbe770
5584000: system.cpu.l1d.prefetcher: Created FT entry with:   0x44c3bc
5584000: system.cpu.l1d.prefetcher: CONGRATS: SUCCESS in inserting new FT entry found!!
5659000: system.cpu.l1d.prefetcher: INSERTENTRY(): spatio_region:      0X1A7, pc:   0x44c408, physical addr:    0xd3d80
5659000: system.cpu.l1d.prefetcher: Created FT entry with:   0x44c408
5659000: system.cpu.l1d.prefetcher: CONGRATS: SUCCESS in inserting new FT entry found!!
5785000: system.cpu.l1d.prefetcher: INSERTENTRY(): spatio_region:          0, pc:   0x402351, physical addr:      0x2e8
5785000: system.cpu.l1d.prefetcher: Created FT entry with:   0x402351
5785000: system.cpu.l1d.prefetcher: CONGRATS: SUCCESS in inserting new FT entry found!!
5799000: system.cpu.l1i.prefetcher: INSERTENTRY(): spatio_region:        0X4, pc:   0x402400, physical addr:     0x2400
5799000: system.cpu.l1i.prefetcher: Created FT entry with:   0x402400
5799000: system.cpu.l1i.prefetcher: CONGRATS: SUCCESS in inserting new FT entry found!!
5894000: system.cpu.l1i.prefetcher: INSERTENTRY(): spatio_region:       0X43, pc:   0x421980, physical addr:    0x21980
5894000: system.cpu.l1i.prefetcher: Created FT entry with:   0x421980
5894000: system.cpu.l1i.prefetcher: CONGRATS: SUCCESS in inserting new FT entry found!!
5985000: system.cpu.l1i.prefetcher: INSERTENTRY(): spatio_region:       0X43, pc:   0x4219c0, physical addr:    0x219c0
5985000: system.cpu.l1i.prefetcher: Created FT entry with:   0x4219c0
5985000: system.cpu.l1i.prefetcher: CONGRATS: SUCCESS in inserting new FT entry found!!
6049000: system.cpu.l1i.prefetcher: INSERTENTRY(): spatio_region:       0X43, pc:   0x421a00, physical addr:    0x21a00
6049000: system.cpu.l1i.prefetcher: Created FT entry with:   0x421a00
6049000: system.cpu.l1i.prefetcher: CONGRATS: SUCCESS in inserting new FT entry found!!
6122000: system.cpu.l1d.prefetcher: INSERTENTRY(): spatio_region:      0X17E, pc:   0x402358, physical addr:    0xbf0d0
6122000: system.cpu.l1d.prefetcher: Created FT entry with:   0x402358
6122000: system.cpu.l1d.prefetcher: CONGRATS: SUCCESS in inserting new FT entry found!!
6135000: system.cpu.l1d.prefetcher: Updated AGT entry with:          0
6227000: system.cpu.l1i.prefetcher: INSERTENTRY(): spatio_region:       0X43, pc:   0x421af0, physical addr:    0x21ac0
6227000: system.cpu.l1i.prefetcher: Created FT entry with:   0x421af0
6227000: system.cpu.l1i.prefetcher: CONGRATS: SUCCESS in inserting new FT entry found!!
6318000: system.cpu.l1i.prefetcher: INSERTENTRY(): spatio_region:       0X43, pc:   0x421b00, physical addr:    0x21b00
6318000: system.cpu.l1i.prefetcher: Created FT entry with:   0x421b00
6318000: system.cpu.l1i.prefetcher: CONGRATS: SUCCESS in inserting new FT entry found!!
6382000: system.cpu.l1i.prefetcher: INSERTENTRY(): spatio_region:       0X43, pc:   0x421b40, physical addr:    0x21b40
6382000: system.cpu.l1i.prefetcher: Created FT entry with:   0x421b40
6382000: system.cpu.l1i.prefetcher: CONGRATS: SUCCESS in inserting new FT entry found!!
6474000: system.cpu.l1i.prefetcher: INSERTENTRY(): spatio_region:      0X109, pc:   0x484a80, physical addr:    0x84a80
6474000: system.cpu.l1i.prefetcher: Created FT entry with:   0x484a80
6474000: system.cpu.l1i.prefetcher: CONGRATS: SUCCESS in inserting new FT entry found!!
6551000: system.cpu.l1i.prefetcher: INSERTENTRY(): spatio_region:      0X109, pc:   0x484ac0, physical addr:    0x84ac0
6551000: system.cpu.l1i.prefetcher: Created FT entry with:   0x484ac0
6551000: system.cpu.l1i.prefetcher: CONGRATS: SUCCESS in inserting new FT entry found!!
6643000: system.cpu.l1i.prefetcher: INSERTENTRY(): spatio_region:       0X43, pc:   0x421a90, physical addr:    0x21a80
6643000: system.cpu.l1i.prefetcher: Created FT entry with:   0x421a90
6643000: system.cpu.l1i.prefetcher: CONGRATS: SUCCESS in inserting new FT entry found!!
6733000: system.cpu.l1d.prefetcher: INSERTENTRY(): spatio_region:      0X17E, pc:   0x402358, physical addr:    0xbf0b8
6733000: system.cpu.l1d.prefetcher: Created FT entry with:   0x402358
6733000: system.cpu.l1d.prefetcher: CONGRATS: SUCCESS in inserting new FT entry found!!
6734000: system.cpu.l1d.prefetcher: Updated AGT entry with:          0
6839000: system.cpu.l1i.prefetcher: INSERTENTRY(): spatio_region:       0X44, pc:   0x422560, physical addr:    0x22540
6839000: system.cpu.l1i.prefetcher: Created FT entry with:   0x422560
6839000: system.cpu.l1i.prefetcher: CONGRATS: SUCCESS in inserting new FT entry found!!
6930000: system.cpu.l1i.prefetcher: INSERTENTRY(): spatio_region:       0X44, pc:   0x422580, physical addr:    0x22580
6930000: system.cpu.l1i.prefetcher: Created FT entry with:   0x422580
6930000: system.cpu.l1i.prefetcher: CONGRATS: SUCCESS in inserting new FT entry found!!
6994000: system.cpu.l1i.prefetcher: INSERTENTRY(): spatio_region:       0X44, pc:   0x4225c0, physical addr:    0x225c0
6994000: system.cpu.l1i.prefetcher: Created FT entry with:   0x4225c0
6994000: system.cpu.l1i.prefetcher: CONGRATS: SUCCESS in inserting new FT entry found!!
7062000: system.cpu.l1i.prefetcher: INSERTENTRY(): spatio_region:       0X44, pc:   0x422600, physical addr:    0x22600
7062000: system.cpu.l1i.prefetcher: Created FT entry with:   0x422600
7062000: system.cpu.l1i.prefetcher: CONGRATS: SUCCESS in inserting new FT entry found!!
7128000: system.cpu.l1i.prefetcher: INSERTENTRY(): spatio_region:       0X44, pc:   0x422640, physical addr:    0x22640
7128000: system.cpu.l1i.prefetcher: Created FT entry with:   0x422640
7128000: system.cpu.l1i.prefetcher: CONGRATS: SUCCESS in inserting new FT entry found!!
7220000: system.cpu.l1i.prefetcher: INSERTENTRY(): spatio_region:      0X109, pc:   0x484d20, physical addr:    0x84d00
7220000: system.cpu.l1i.prefetcher: Created FT entry with:   0x484d20
7220000: system.cpu.l1i.prefetcher: CONGRATS: SUCCESS in inserting new FT entry found!!
7284000: system.cpu.l1i.prefetcher: INSERTENTRY(): spatio_region:      0X109, pc:   0x484d40, physical addr:    0x84d40
7284000: system.cpu.l1i.prefetcher: Created FT entry with:   0x484d40
7284000: system.cpu.l1i.prefetcher: CONGRATS: SUCCESS in inserting new FT entry found!!
7348000: system.cpu.l1i.prefetcher: INSERTENTRY(): spatio_region:      0X109, pc:   0x484d80, physical addr:    0x84d80
7348000: system.cpu.l1i.prefetcher: Created FT entry with:   0x484d80
7348000: system.cpu.l1i.prefetcher: CONGRATS: SUCCESS in inserting new FT entry found!!
7416000: system.cpu.l1i.prefetcher: INSERTENTRY(): spatio_region:      0X109, pc:   0x484dc0, physical addr:    0x84dc0
7416000: system.cpu.l1i.prefetcher: Created FT entry with:   0x484dc0
7416000: system.cpu.l1i.prefetcher: CONGRATS: SUCCESS in inserting new FT entry found!!
7512000: system.cpu.l1i.prefetcher: INSERTENTRY(): spatio_region:       0X43, pc:   0x421a40, physical addr:    0x21a40
7512000: system.cpu.l1i.prefetcher: Created FT entry with:   0x421a40
7512000: system.cpu.l1i.prefetcher: CONGRATS: SUCCESS in inserting new FT entry found!!
7613000: system.cpu.l1d.prefetcher: Updated AGT entry with:          0
7614000: system.cpu.l1d.prefetcher: Updated AGT entry with:          0
7718000: system.cpu.l1i.prefetcher: INSERTENTRY(): spatio_region:       0XE0, pc:   0x470140, physical addr:    0x70140
7718000: system.cpu.l1i.prefetcher: Created FT entry with:   0x470140
7718000: system.cpu.l1i.prefetcher: CONGRATS: SUCCESS in inserting new FT entry found!!
7795000: system.cpu.l1i.prefetcher: INSERTENTRY(): spatio_region:       0XE0, pc:   0x470180, physical addr:    0x70180
7795000: system.cpu.l1i.prefetcher: Created FT entry with:   0x470180
7795000: system.cpu.l1i.prefetcher: CONGRATS: SUCCESS in inserting new FT entry found!!
8125000: system.cpu.l1i.prefetcher: INSERTENTRY(): spatio_region:       0XE0, pc:   0x4701c0, physical addr:    0x701c0
8125000: system.cpu.l1i.prefetcher: Created FT entry with:   0x4701c0
8125000: system.cpu.l1i.prefetcher: CONGRATS: SUCCESS in inserting new FT entry found!!
8217000: system.cpu.l1i.prefetcher: INSERTENTRY(): spatio_region:       0X44, pc:   0x4224c0, physical addr:    0x224c0
8217000: system.cpu.l1i.prefetcher: Created FT entry with:   0x4224c0
8217000: system.cpu.l1i.prefetcher: CONGRATS: SUCCESS in inserting new FT entry found!!
8294000: system.cpu.l1i.prefetcher: INSERTENTRY(): spatio_region:       0X44, pc:   0x422500, physical addr:    0x22500
8294000: system.cpu.l1i.prefetcher: Created FT entry with:   0x422500
8294000: system.cpu.l1i.prefetcher: CONGRATS: SUCCESS in inserting new FT entry found!!
8405000: system.cpu.l1d.prefetcher: Updated AGT entry with:          0
8483000: system.cpu.l1i.prefetcher: INSERTENTRY(): spatio_region:      0X109, pc:   0x484ce0, physical addr:    0x84cc0
8483000: system.cpu.l1i.prefetcher: Created FT entry with:   0x484ce0
8483000: system.cpu.l1i.prefetcher: CONGRATS: SUCCESS in inserting new FT entry found!!
8608000: system.cpu.l1i.prefetcher: INSERTENTRY(): spatio_region:       0X44, pc:   0x422680, physical addr:    0x22680
8608000: system.cpu.l1i.prefetcher: Created FT entry with:   0x422680
8608000: system.cpu.l1i.prefetcher: CONGRATS: SUCCESS in inserting new FT entry found!!
8672000: system.cpu.l1i.prefetcher: INSERTENTRY(): spatio_region:       0X44, pc:   0x4226c0, physical addr:    0x226c0
8672000: system.cpu.l1i.prefetcher: Created FT entry with:   0x4226c0
8672000: system.cpu.l1i.prefetcher: CONGRATS: SUCCESS in inserting new FT entry found!!
8740000: system.cpu.l1i.prefetcher: INSERTENTRY(): spatio_region:       0X44, pc:   0x422700, physical addr:    0x22700
8740000: system.cpu.l1i.prefetcher: Created FT entry with:   0x422700
8740000: system.cpu.l1i.prefetcher: CONGRATS: SUCCESS in inserting new FT entry found!!
8832000: system.cpu.l1i.prefetcher: INSERTENTRY(): spatio_region:       0X44, pc:   0x422390, physical addr:    0x22380
8832000: system.cpu.l1i.prefetcher: Created FT entry with:   0x422390
8832000: system.cpu.l1i.prefetcher: CONGRATS: SUCCESS in inserting new FT entry found!!
8896000: system.cpu.l1i.prefetcher: INSERTENTRY(): spatio_region:       0X44, pc:   0x4223c0, physical addr:    0x223c0
8896000: system.cpu.l1i.prefetcher: Created FT entry with:   0x4223c0
8896000: system.cpu.l1i.prefetcher: CONGRATS: SUCCESS in inserting new FT entry found!!
8960000: system.cpu.l1i.prefetcher: INSERTENTRY(): spatio_region:       0X44, pc:   0x422400, physical addr:    0x22400
8960000: system.cpu.l1i.prefetcher: Created FT entry with:   0x422400
8960000: system.cpu.l1i.prefetcher: CONGRATS: SUCCESS in inserting new FT entry found!!
9033000: system.cpu.l1d.prefetcher: INSERTENTRY(): spatio_region:      0X17E, pc:   0x402358, physical addr:    0xbf078
9033000: system.cpu.l1d.prefetcher: Created FT entry with:   0x402358
9033000: system.cpu.l1d.prefetcher: CONGRATS: SUCCESS in inserting new FT entry found!!
9034000: system.cpu.l1d.prefetcher: Updated AGT entry with:          0
9135000: system.cpu.l1i.prefetcher: INSERTENTRY(): spatio_region:       0X43, pc:   0x421b80, physical addr:    0x21b80
9135000: system.cpu.l1i.prefetcher: Created FT entry with:   0x421b80
9135000: system.cpu.l1i.prefetcher: CONGRATS: SUCCESS in inserting new FT entry found!!
9230000: system.cpu.l1i.prefetcher: INSERTENTRY(): spatio_region:       0X43, pc:   0x421bc0, physical addr:    0x21bc0
9230000: system.cpu.l1i.prefetcher: Created FT entry with:   0x421bc0
9230000: system.cpu.l1i.prefetcher: CONGRATS: SUCCESS in inserting new FT entry found!!
9322000: system.cpu.l1i.prefetcher: INSERTENTRY(): spatio_region:       0X44, pc:   0x422370, physical addr:    0x22340
9322000: system.cpu.l1i.prefetcher: Created FT entry with:   0x422370
9322000: system.cpu.l1i.prefetcher: CONGRATS: SUCCESS in inserting new FT entry found!!
9397000: system.cpu.l1i.prefetcher: INSERTENTRY(): spatio_region:       0X44, pc:   0x422440, physical addr:    0x22440
9397000: system.cpu.l1i.prefetcher: Created FT entry with:   0x422440
9397000: system.cpu.l1i.prefetcher: CONGRATS: SUCCESS in inserting new FT entry found!!
9489000: system.cpu.l1i.prefetcher: INSERTENTRY(): spatio_region:       0XDC, pc:   0x46e1e0, physical addr:    0x6e1c0
9489000: system.cpu.l1i.prefetcher: Created FT entry with:   0x46e1e0
9489000: system.cpu.l1i.prefetcher: CONGRATS: SUCCESS in inserting new FT entry found!!
9566000: system.cpu.l1i.prefetcher: INSERTENTRY(): spatio_region:       0XDC, pc:   0x46e200, physical addr:    0x6e200
9566000: system.cpu.l1i.prefetcher: Created FT entry with:   0x46e200
9566000: system.cpu.l1i.prefetcher: CONGRATS: SUCCESS in inserting new FT entry found!!
9630000: system.cpu.l1i.prefetcher: INSERTENTRY(): spatio_region:       0XDC, pc:   0x46e240, physical addr:    0x6e240
9630000: system.cpu.l1i.prefetcher: Created FT entry with:   0x46e240
9630000: system.cpu.l1i.prefetcher: CONGRATS: SUCCESS in inserting new FT entry found!!
9704000: system.cpu.l1d.prefetcher: Updated AGT entry with:          0
9705000: system.cpu.l1d.prefetcher: Updated AGT entry with:          0
9809000: system.cpu.l1i.prefetcher: INSERTENTRY(): spatio_region:       0X44, pc:   0x4227d0, physical addr:    0x227c0
9809000: system.cpu.l1i.prefetcher: Created FT entry with:   0x4227d0
9809000: system.cpu.l1i.prefetcher: CONGRATS: SUCCESS in inserting new FT entry found!!
9873000: system.cpu.l1i.prefetcher: INSERTENTRY(): spatio_region:       0X45, pc:   0x422800, physical addr:    0x22800
9873000: system.cpu.l1i.prefetcher: Created FT entry with:   0x422800
9873000: system.cpu.l1i.prefetcher: CONGRATS: SUCCESS in inserting new FT entry found!!
9937000: system.cpu.l1i.prefetcher: INSERTENTRY(): spatio_region:       0X45, pc:   0x422840, physical addr:    0x22840
9937000: system.cpu.l1i.prefetcher: Created FT entry with:   0x422840
9937000: system.cpu.l1i.prefetcher: CONGRATS: SUCCESS in inserting new FT entry found!!
10083000: system.cpu.l1d.prefetcher: Updated AGT entry with:          0
10148000: system.cpu.l1i.prefetcher: INSERTENTRY(): spatio_region:       0XDC, pc:   0x46e120, physical addr:    0x6e100
10148000: system.cpu.l1i.prefetcher: Created FT entry with:   0x46e120
10148000: system.cpu.l1i.prefetcher: CONGRATS: SUCCESS in inserting new FT entry found!!
10212000: system.cpu.l1i.prefetcher: INSERTENTRY(): spatio_region:       0XDC, pc:   0x46e140, physical addr:    0x6e140
10212000: system.cpu.l1i.prefetcher: Created FT entry with:   0x46e140
10212000: system.cpu.l1i.prefetcher: CONGRATS: SUCCESS in inserting new FT entry found!!
10276000: system.cpu.l1i.prefetcher: INSERTENTRY(): spatio_region:       0XDC, pc:   0x46e180, physical addr:    0x6e180
10276000: system.cpu.l1i.prefetcher: Created FT entry with:   0x46e180
10276000: system.cpu.l1i.prefetcher: CONGRATS: SUCCESS in inserting new FT entry found!!
10368000: system.cpu.l1i.prefetcher: INSERTENTRY(): spatio_region:       0XDF, pc:   0x46fa30, physical addr:    0x6fa00
10368000: system.cpu.l1i.prefetcher: Created FT entry with:   0x46fa30
10368000: system.cpu.l1i.prefetcher: CONGRATS: SUCCESS in inserting new FT entry found!!
10432000: system.cpu.l1i.prefetcher: INSERTENTRY(): spatio_region:       0XDF, pc:   0x46fa40, physical addr:    0x6fa40
10432000: system.cpu.l1i.prefetcher: Created FT entry with:   0x46fa40
10432000: system.cpu.l1i.prefetcher: CONGRATS: SUCCESS in inserting new FT entry found!!
10496000: system.cpu.l1i.prefetcher: INSERTENTRY(): spatio_region:       0XDF, pc:   0x46fa80, physical addr:    0x6fa80
10496000: system.cpu.l1i.prefetcher: Created FT entry with:   0x46fa80
10496000: system.cpu.l1i.prefetcher: CONGRATS: SUCCESS in inserting new FT entry found!!
10592000: system.cpu.l1i.prefetcher: INSERTENTRY(): spatio_region:       0X44, pc:   0x422740, physical addr:    0x22740
10592000: system.cpu.l1i.prefetcher: Created FT entry with:   0x422740
10592000: system.cpu.l1i.prefetcher: CONGRATS: SUCCESS in inserting new FT entry found!!
10660000: system.cpu.l1i.prefetcher: INSERTENTRY(): spatio_region:       0X44, pc:   0x422780, physical addr:    0x22780
10660000: system.cpu.l1i.prefetcher: Created FT entry with:   0x422780
10660000: system.cpu.l1i.prefetcher: CONGRATS: SUCCESS in inserting new FT entry found!!
10751000: system.cpu.l1d.prefetcher: INSERTENTRY(): spatio_region:      0X17E, pc:   0x402358, physical addr:    0xbf038
10751000: system.cpu.l1d.prefetcher: Created FT entry with:   0x402358
10751000: system.cpu.l1d.prefetcher: CONGRATS: SUCCESS in inserting new FT entry found!!
10752000: system.cpu.l1d.prefetcher: Updated AGT entry with:          0
10852000: system.cpu.l1i.prefetcher: INSERTENTRY(): spatio_region:       0X45, pc:   0x422880, physical addr:    0x22880
10852000: system.cpu.l1i.prefetcher: Created FT entry with:   0x422880
10852000: system.cpu.l1i.prefetcher: CONGRATS: SUCCESS in inserting new FT entry found!!
10949000: system.cpu.l1i.prefetcher: INSERTENTRY(): spatio_region:       0X44, pc:   0x422480, physical addr:    0x22480
10949000: system.cpu.l1i.prefetcher: Created FT entry with:   0x422480
10949000: system.cpu.l1i.prefetcher: CONGRATS: SUCCESS in inserting new FT entry found!!
11090000: system.cpu.l1i.prefetcher: INSERTENTRY(): spatio_region:       0XDC, pc:   0x46e0e0, physical addr:    0x6e0c0
11090000: system.cpu.l1i.prefetcher: Created FT entry with:   0x46e0e0
11090000: system.cpu.l1i.prefetcher: CONGRATS: SUCCESS in inserting new FT entry found!!
11183000: system.cpu.l1d.prefetcher: Updated AGT entry with:          0
11184000: system.cpu.l1d.prefetcher: Updated AGT entry with:          0
11308000: system.cpu.l1i.prefetcher: INSERTENTRY(): spatio_region:        0X4, pc:   0x40248b, physical addr:     0x2480
11308000: system.cpu.l1i.prefetcher: Created FT entry with:   0x40248b
11308000: system.cpu.l1i.prefetcher: CONGRATS: SUCCESS in inserting new FT entry found!!
11399000: system.cpu.l1i.prefetcher: INSERTENTRY(): spatio_region:        0X4, pc:   0x4024c0, physical addr:     0x24c0
11399000: system.cpu.l1i.prefetcher: Created FT entry with:   0x4024c0
11399000: system.cpu.l1i.prefetcher: CONGRATS: SUCCESS in inserting new FT entry found!!
11463000: system.cpu.l1i.prefetcher: INSERTENTRY(): spatio_region:        0X5, pc:   0x402ae0, physical addr:     0x2ac0
11463000: system.cpu.l1i.prefetcher: Created FT entry with:   0x402ae0
11463000: system.cpu.l1i.prefetcher: CONGRATS: SUCCESS in inserting new FT entry found!!
11527000: system.cpu.l1i.prefetcher: INSERTENTRY(): spatio_region:        0X5, pc:   0x402b00, physical addr:     0x2b00
11527000: system.cpu.l1i.prefetcher: Created FT entry with:   0x402b00
11527000: system.cpu.l1i.prefetcher: CONGRATS: SUCCESS in inserting new FT entry found!!
11552000: system.cpu.l1d.prefetcher: INSERTENTRY(): spatio_region:      0X180, pc:   0x402af9, physical addr:    0xc0180
11552000: system.cpu.l1d.prefetcher: Created FT entry with:   0x402af9
11552000: system.cpu.l1d.prefetcher: CONGRATS: SUCCESS in inserting new FT entry found!!
11591000: system.cpu.l1i.prefetcher: INSERTENTRY(): spatio_region:        0X5, pc:   0x402b40, physical addr:     0x2b40
11591000: system.cpu.l1i.prefetcher: Created FT entry with:   0x402b40
11591000: system.cpu.l1i.prefetcher: CONGRATS: SUCCESS in inserting new FT entry found!!
11658000: system.cpu.l1i.prefetcher: INSERTENTRY(): spatio_region:        0X5, pc:   0x402b80, physical addr:     0x2b80
11658000: system.cpu.l1i.prefetcher: Created FT entry with:   0x402b80
11658000: system.cpu.l1i.prefetcher: CONGRATS: SUCCESS in inserting new FT entry found!!
11659000: system.cpu.l1d.prefetcher: Updated AGT entry with:          0
11722000: system.cpu.l1i.prefetcher: INSERTENTRY(): spatio_region:        0X5, pc:   0x402bc0, physical addr:     0x2bc0
11722000: system.cpu.l1i.prefetcher: Created FT entry with:   0x402bc0
11722000: system.cpu.l1i.prefetcher: CONGRATS: SUCCESS in inserting new FT entry found!!
11798000: system.cpu.l1d.prefetcher: Updated AGT entry with:          0
11799000: system.cpu.l1d.prefetcher: Updated AGT entry with:          0
11800000: system.cpu.l1i.prefetcher: INSERTENTRY(): spatio_region:        0X5, pc:   0x402c00, physical addr:     0x2c00
11800000: system.cpu.l1i.prefetcher: Created FT entry with:   0x402c00
11800000: system.cpu.l1i.prefetcher: CONGRATS: SUCCESS in inserting new FT entry found!!
11878000: system.cpu.l1d.prefetcher: Updated AGT entry with:          0
11879000: system.cpu.l1d.prefetcher: Updated AGT entry with:          0
11949000: system.cpu.l1d.prefetcher: Updated AGT entry with:          0
11950000: system.cpu.l1d.prefetcher: Updated AGT entry with:          0
12020000: system.cpu.l1d.prefetcher: Updated AGT entry with:          0
12021000: system.cpu.l1d.prefetcher: Updated AGT entry with:          0
12091000: system.cpu.l1d.prefetcher: Updated AGT entry with:          0
12092000: system.cpu.l1d.prefetcher: Updated AGT entry with:          0
12162000: system.cpu.l1d.prefetcher: Updated AGT entry with:          0
12229000: system.cpu.l1d.prefetcher: INSERTENTRY(): spatio_region:      0X180, pc:   0x402b64, physical addr:    0xc0220
12229000: system.cpu.l1d.prefetcher: Created FT entry with:   0x402b64
12229000: system.cpu.l1d.prefetcher: CONGRATS: SUCCESS in inserting new FT entry found!!
12392000: system.cpu.l1i.prefetcher: INSERTENTRY(): spatio_region:        0X5, pc:   0x402c40, physical addr:     0x2c40
12392000: system.cpu.l1i.prefetcher: Created FT entry with:   0x402c40
12392000: system.cpu.l1i.prefetcher: CONGRATS: SUCCESS in inserting new FT entry found!!
12456000: system.cpu.l1i.prefetcher: INSERTENTRY(): spatio_region:       0X92, pc:   0x449250, physical addr:    0x49240
12456000: system.cpu.l1i.prefetcher: Created FT entry with:   0x449250
12456000: system.cpu.l1i.prefetcher: CONGRATS: SUCCESS in inserting new FT entry found!!
12533000: system.cpu.l1i.prefetcher: INSERTENTRY(): spatio_region:       0X92, pc:   0x449280, physical addr:    0x49280
12533000: system.cpu.l1i.prefetcher: Created FT entry with:   0x449280
12533000: system.cpu.l1i.prefetcher: CONGRATS: SUCCESS in inserting new FT entry found!!
12544000: system.cpu.l1d.prefetcher: INSERTENTRY(): spatio_region:      0X183, pc:   0x44925e, physical addr:    0xc1f38
12544000: system.cpu.l1d.prefetcher: Created FT entry with:   0x44925e
12544000: system.cpu.l1d.prefetcher: CONGRATS: SUCCESS in inserting new FT entry found!!
12597000: system.cpu.l1i.prefetcher: INSERTENTRY(): spatio_region:       0X92, pc:   0x4492c0, physical addr:    0x492c0
12597000: system.cpu.l1i.prefetcher: Created FT entry with:   0x4492c0
12597000: system.cpu.l1i.prefetcher: CONGRATS: SUCCESS in inserting new FT entry found!!
12665000: system.cpu.l1i.prefetcher: INSERTENTRY(): spatio_region:       0X92, pc:   0x449300, physical addr:    0x49300
12665000: system.cpu.l1i.prefetcher: Created FT entry with:   0x449300
12665000: system.cpu.l1i.prefetcher: CONGRATS: SUCCESS in inserting new FT entry found!!
12729000: system.cpu.l1i.prefetcher: INSERTENTRY(): spatio_region:       0XE2, pc:   0x471550, physical addr:    0x71540
12729000: system.cpu.l1i.prefetcher: Created FT entry with:   0x471550
12729000: system.cpu.l1i.prefetcher: CONGRATS: SUCCESS in inserting new FT entry found!!
12793000: system.cpu.l1i.prefetcher: INSERTENTRY(): spatio_region:       0XE2, pc:   0x471580, physical addr:    0x71580
12793000: system.cpu.l1i.prefetcher: Created FT entry with:   0x471580
12793000: system.cpu.l1i.prefetcher: CONGRATS: SUCCESS in inserting new FT entry found!!
12861000: system.cpu.l1i.prefetcher: INSERTENTRY(): spatio_region:       0XE2, pc:   0x4715c0, physical addr:    0x715c0
12861000: system.cpu.l1i.prefetcher: Created FT entry with:   0x4715c0
12861000: system.cpu.l1i.prefetcher: CONGRATS: SUCCESS in inserting new FT entry found!!
12935000: system.cpu.l1i.prefetcher: INSERTENTRY(): spatio_region:       0X92, pc:   0x449340, physical addr:    0x49340
12935000: system.cpu.l1i.prefetcher: Created FT entry with:   0x449340
12935000: system.cpu.l1i.prefetcher: CONGRATS: SUCCESS in inserting new FT entry found!!
13050000: system.cpu.l1i.prefetcher: INSERTENTRY(): spatio_region:       0XE2, pc:   0x471600, physical addr:    0x71600
13050000: system.cpu.l1i.prefetcher: Created FT entry with:   0x471600
13050000: system.cpu.l1i.prefetcher: CONGRATS: SUCCESS in inserting new FT entry found!!
13123000: system.cpu.l1i.prefetcher: INSERTENTRY(): spatio_region:       0X92, pc:   0x449380, physical addr:    0x49380
13123000: system.cpu.l1i.prefetcher: Created FT entry with:   0x449380
13123000: system.cpu.l1i.prefetcher: CONGRATS: SUCCESS in inserting new FT entry found!!
13196000: system.cpu.l1d.prefetcher: INSERTENTRY(): spatio_region:      0X1A4, pc:   0x402ba0, physical addr:    0xd2320
13196000: system.cpu.l1d.prefetcher: Created FT entry with:   0x402ba0
13196000: system.cpu.l1d.prefetcher: CONGRATS: SUCCESS in inserting new FT entry found!!
13250000: system.cpu.l1i.prefetcher: INSERTENTRY(): spatio_region:        0X5, pc:   0x402c80, physical addr:     0x2c80
13250000: system.cpu.l1i.prefetcher: Created FT entry with:   0x402c80
13250000: system.cpu.l1i.prefetcher: CONGRATS: SUCCESS in inserting new FT entry found!!
13277000: system.cpu.l1d.prefetcher: INSERTENTRY(): spatio_region:      0X180, pc:   0x402bf2, physical addr:    0xc0670
13277000: system.cpu.l1d.prefetcher: Created FT entry with:   0x402bf2
13277000: system.cpu.l1d.prefetcher: CONGRATS: SUCCESS in inserting new FT entry found!!
13278000: system.cpu.l1d.prefetcher: Updated AGT entry with:          0
13314000: system.cpu.l1i.prefetcher: INSERTENTRY(): spatio_region:        0X2, pc:   0x401060, physical addr:     0x1040
13314000: system.cpu.l1i.prefetcher: Created FT entry with:   0x401060
13314000: system.cpu.l1i.prefetcher: CONGRATS: SUCCESS in inserting new FT entry found!!
13340000: system.cpu.l1d.prefetcher: Updated AGT entry with:          0
13405000: system.cpu.l1i.prefetcher: INSERTENTRY(): spatio_region:        0X2, pc:   0x401080, physical addr:     0x1080
13405000: system.cpu.l1i.prefetcher: Created FT entry with:   0x401080
13405000: system.cpu.l1i.prefetcher: CONGRATS: SUCCESS in inserting new FT entry found!!
13469000: system.cpu.l1i.prefetcher: INSERTENTRY(): spatio_region:       0X8B, pc:   0x445a60, physical addr:    0x45a40
13469000: system.cpu.l1i.prefetcher: Created FT entry with:   0x445a60
13469000: system.cpu.l1i.prefetcher: CONGRATS: SUCCESS in inserting new FT entry found!!
13560000: system.cpu.l1i.prefetcher: INSERTENTRY(): spatio_region:       0X8B, pc:   0x445a80, physical addr:    0x45a80
13560000: system.cpu.l1i.prefetcher: Created FT entry with:   0x445a80
13560000: system.cpu.l1i.prefetcher: CONGRATS: SUCCESS in inserting new FT entry found!!
13569000: system.cpu.l1d.prefetcher: INSERTENTRY(): spatio_region:      0X178, pc:   0x445a7b, physical addr:    0xbc0c0
13569000: system.cpu.l1d.prefetcher: Created FT entry with:   0x445a7b
13569000: system.cpu.l1d.prefetcher: CONGRATS: SUCCESS in inserting new FT entry found!!
13570000: system.cpu.l1d.prefetcher: Updated AGT entry with:          0
13624000: system.cpu.l1i.prefetcher: INSERTENTRY(): spatio_region:       0X8B, pc:   0x445ac0, physical addr:    0x45ac0
13624000: system.cpu.l1i.prefetcher: Created FT entry with:   0x445ac0
13624000: system.cpu.l1i.prefetcher: CONGRATS: SUCCESS in inserting new FT entry found!!
13693000: system.cpu.l1i.prefetcher: INSERTENTRY(): spatio_region:       0X8B, pc:   0x445b00, physical addr:    0x45b00
13693000: system.cpu.l1i.prefetcher: Created FT entry with:   0x445b00
13693000: system.cpu.l1i.prefetcher: CONGRATS: SUCCESS in inserting new FT entry found!!
13694000: system.cpu.l1d.prefetcher: INSERTENTRY(): spatio_region:      0X1AB, pc:   0x445a83, physical addr:    0xd5820
13694000: system.cpu.l1d.prefetcher: Created FT entry with:   0x445a83
13694000: system.cpu.l1d.prefetcher: CONGRATS: SUCCESS in inserting new FT entry found!!
13695000: system.cpu.l1d.prefetcher: INSERTENTRY(): spatio_region:      0X1AB, pc:   0x445a83, physical addr:    0xd5828
13695000: system.cpu.l1d.prefetcher: Created FT entry with:   0x445a83
13695000: system.cpu.l1d.prefetcher: CONGRATS: SUCCESS in inserting new FT entry found!!
13783000: system.cpu.l1i.prefetcher: INSERTENTRY(): spatio_region:        0X5, pc:   0x402cc0, physical addr:     0x2cc0
13783000: system.cpu.l1i.prefetcher: Created FT entry with:   0x402cc0
13783000: system.cpu.l1i.prefetcher: CONGRATS: SUCCESS in inserting new FT entry found!!
13786000: system.cpu.l1d.prefetcher: INSERTENTRY(): spatio_region:      0X1AB, pc:   0x402c25, physical addr:    0xd5888
13786000: system.cpu.l1d.prefetcher: Created FT entry with:   0x402c25
13786000: system.cpu.l1d.prefetcher: CONGRATS: SUCCESS in inserting new FT entry found!!
13789000: system.cpu.l1d.prefetcher: Updated AGT entry with:          0
13856000: system.cpu.l1i.prefetcher: INSERTENTRY(): spatio_region:        0X5, pc:   0x402d00, physical addr:     0x2d00
13856000: system.cpu.l1i.prefetcher: Created FT entry with:   0x402d00
13856000: system.cpu.l1i.prefetcher: CONGRATS: SUCCESS in inserting new FT entry found!!
13934000: system.cpu.l1d.prefetcher: Updated AGT entry with:          0
13943000: system.cpu.l1d.prefetcher: INSERTENTRY(): spatio_region:      0X182, pc:   0x402c8f, physical addr:    0xc12b8
13943000: system.cpu.l1d.prefetcher: Created FT entry with:   0x402c8f
13943000: system.cpu.l1d.prefetcher: CONGRATS: SUCCESS in inserting new FT entry found!!
13943000: system.cpu.l1i.prefetcher: INSERTENTRY(): spatio_region:        0X5, pc:   0x402d40, physical addr:     0x2d40
13943000: system.cpu.l1i.prefetcher: Created FT entry with:   0x402d40
13943000: system.cpu.l1i.prefetcher: CONGRATS: SUCCESS in inserting new FT entry found!!
14000000: system.cpu.l1d.prefetcher: INSERTENTRY(): spatio_region:      0X182, pc:   0x402cb5, physical addr:    0xc1290
14000000: system.cpu.l1d.prefetcher: Created FT entry with:   0x402cb5
14000000: system.cpu.l1d.prefetcher: CONGRATS: SUCCESS in inserting new FT entry found!!
14035000: system.cpu.l1i.prefetcher: INSERTENTRY(): spatio_region:        0X5, pc:   0x402d80, physical addr:     0x2d80
14035000: system.cpu.l1i.prefetcher: Created FT entry with:   0x402d80
14035000: system.cpu.l1i.prefetcher: CONGRATS: SUCCESS in inserting new FT entry found!!
14103000: system.cpu.l1i.prefetcher: INSERTENTRY(): spatio_region:        0X4, pc:   0x402500, physical addr:     0x2500
14103000: system.cpu.l1i.prefetcher: Created FT entry with:   0x402500
14103000: system.cpu.l1i.prefetcher: CONGRATS: SUCCESS in inserting new FT entry found!!
14109000: system.cpu.l1d.prefetcher: Updated AGT entry with:          0
14167000: system.cpu.l1i.prefetcher: INSERTENTRY(): spatio_region:        0X4, pc:   0x40270e, physical addr:     0x2700
14167000: system.cpu.l1i.prefetcher: Created FT entry with:   0x40270e
14167000: system.cpu.l1i.prefetcher: CONGRATS: SUCCESS in inserting new FT entry found!!
14231000: system.cpu.l1i.prefetcher: INSERTENTRY(): spatio_region:        0X4, pc:   0x402740, physical addr:     0x2740
14231000: system.cpu.l1i.prefetcher: Created FT entry with:   0x402740
14231000: system.cpu.l1i.prefetcher: CONGRATS: SUCCESS in inserting new FT entry found!!
14308000: system.cpu.l1i.prefetcher: INSERTENTRY(): spatio_region:       0X9C, pc:   0x44e330, physical addr:    0x4e300
14308000: system.cpu.l1i.prefetcher: Created FT entry with:   0x44e330
14308000: system.cpu.l1i.prefetcher: CONGRATS: SUCCESS in inserting new FT entry found!!
14399000: system.cpu.l1i.prefetcher: INSERTENTRY(): spatio_region:       0X9C, pc:   0x44e340, physical addr:    0x4e340
14399000: system.cpu.l1i.prefetcher: Created FT entry with:   0x44e340
14399000: system.cpu.l1i.prefetcher: CONGRATS: SUCCESS in inserting new FT entry found!!
14463000: system.cpu.l1i.prefetcher: INSERTENTRY(): spatio_region:       0X9C, pc:   0x44e380, physical addr:    0x4e380
14463000: system.cpu.l1i.prefetcher: Created FT entry with:   0x44e380
14463000: system.cpu.l1i.prefetcher: CONGRATS: SUCCESS in inserting new FT entry found!!
14470000: system.cpu.l1d.prefetcher: INSERTENTRY(): spatio_region:      0X1A7, pc:   0x44e344, physical addr:    0xd3b28
14470000: system.cpu.l1d.prefetcher: Created FT entry with:   0x44e344
14470000: system.cpu.l1d.prefetcher: CONGRATS: SUCCESS in inserting new FT entry found!!
14527000: system.cpu.l1i.prefetcher: INSERTENTRY(): spatio_region:       0XE2, pc:   0x471300, physical addr:    0x71300
14527000: system.cpu.l1i.prefetcher: Created FT entry with:   0x471300
14527000: system.cpu.l1i.prefetcher: CONGRATS: SUCCESS in inserting new FT entry found!!
14591000: system.cpu.l1i.prefetcher: INSERTENTRY(): spatio_region:       0XE2, pc:   0x471340, physical addr:    0x71340
14591000: system.cpu.l1i.prefetcher: Created FT entry with:   0x471340
14591000: system.cpu.l1i.prefetcher: CONGRATS: SUCCESS in inserting new FT entry found!!
14660000: system.cpu.l1i.prefetcher: INSERTENTRY(): spatio_region:       0XE2, pc:   0x471380, physical addr:    0x71380
14660000: system.cpu.l1i.prefetcher: Created FT entry with:   0x471380
14660000: system.cpu.l1i.prefetcher: CONGRATS: SUCCESS in inserting new FT entry found!!
14729000: system.cpu.l1i.prefetcher: INSERTENTRY(): spatio_region:       0X9C, pc:   0x44e3c0, physical addr:    0x4e3c0
14729000: system.cpu.l1i.prefetcher: Created FT entry with:   0x44e3c0
14729000: system.cpu.l1i.prefetcher: CONGRATS: SUCCESS in inserting new FT entry found!!
14732000: system.cpu.l1d.prefetcher: Updated AGT entry with:          0
14802000: system.cpu.l1i.prefetcher: INSERTENTRY(): spatio_region:       0X9C, pc:   0x44e400, physical addr:    0x4e400
14802000: system.cpu.l1i.prefetcher: Created FT entry with:   0x44e400
14802000: system.cpu.l1i.prefetcher: CONGRATS: SUCCESS in inserting new FT entry found!!
14970000: system.cpu.l1i.prefetcher: INSERTENTRY(): spatio_region:       0X9C, pc:   0x44e440, physical addr:    0x4e440
14970000: system.cpu.l1i.prefetcher: Created FT entry with:   0x44e440
14970000: system.cpu.l1i.prefetcher: CONGRATS: SUCCESS in inserting new FT entry found!!
15060000: system.cpu.l1i.prefetcher: INSERTENTRY(): spatio_region:        0X4, pc:   0x402780, physical addr:     0x2780
15060000: system.cpu.l1i.prefetcher: Created FT entry with:   0x402780
15060000: system.cpu.l1i.prefetcher: CONGRATS: SUCCESS in inserting new FT entry found!!
15130000: system.cpu.l1i.prefetcher: INSERTENTRY(): spatio_region:        0X4, pc:   0x402540, physical addr:     0x2540
15130000: system.cpu.l1i.prefetcher: Created FT entry with:   0x402540
15130000: system.cpu.l1i.prefetcher: CONGRATS: SUCCESS in inserting new FT entry found!!
15131000: system.cpu.l1d.prefetcher: INSERTENTRY(): spatio_region:      0X17D, pc:   0x4024c0, physical addr:    0xbef80
15131000: system.cpu.l1d.prefetcher: Created FT entry with:   0x4024c0
15131000: system.cpu.l1d.prefetcher: CONGRATS: SUCCESS in inserting new FT entry found!!
15216000: system.cpu.l1i.prefetcher: INSERTENTRY(): spatio_region:        0X4, pc:   0x402580, physical addr:     0x2580
15216000: system.cpu.l1i.prefetcher: Created FT entry with:   0x402580
15216000: system.cpu.l1i.prefetcher: CONGRATS: SUCCESS in inserting new FT entry found!!
15298000: system.cpu.l1i.prefetcher: INSERTENTRY(): spatio_region:       0X9C, pc:   0x44e480, physical addr:    0x4e480
15298000: system.cpu.l1i.prefetcher: Created FT entry with:   0x44e480
15298000: system.cpu.l1i.prefetcher: CONGRATS: SUCCESS in inserting new FT entry found!!
15364000: system.cpu.l1i.prefetcher: INSERTENTRY(): spatio_region:       0X9C, pc:   0x44e4c0, physical addr:    0x4e4c0
15364000: system.cpu.l1i.prefetcher: Created FT entry with:   0x44e4c0
15364000: system.cpu.l1i.prefetcher: CONGRATS: SUCCESS in inserting new FT entry found!!
15369000: system.cpu.l1d.prefetcher: INSERTENTRY(): spatio_region:      0X181, pc:   0x44e4a0, physical addr:    0xc0a68
15369000: system.cpu.l1d.prefetcher: Created FT entry with:   0x44e4a0
15369000: system.cpu.l1d.prefetcher: CONGRATS: SUCCESS in inserting new FT entry found!!
15428000: system.cpu.l1i.prefetcher: INSERTENTRY(): spatio_region:       0X9C, pc:   0x44e500, physical addr:    0x4e500
15428000: system.cpu.l1i.prefetcher: Created FT entry with:   0x44e500
15428000: system.cpu.l1i.prefetcher: CONGRATS: SUCCESS in inserting new FT entry found!!
15536000: system.cpu.l1d.prefetcher: Updated AGT entry with:          0
15539000: system.cpu.l1i.prefetcher: INSERTENTRY(): spatio_region:       0XF7, pc:   0x47bc10, physical addr:    0x7bc00
15539000: system.cpu.l1i.prefetcher: Created FT entry with:   0x47bc10
15539000: system.cpu.l1i.prefetcher: CONGRATS: SUCCESS in inserting new FT entry found!!
15616000: system.cpu.l1i.prefetcher: INSERTENTRY(): spatio_region:       0XF7, pc:   0x47bc40, physical addr:    0x7bc40
15616000: system.cpu.l1i.prefetcher: Created FT entry with:   0x47bc40
15616000: system.cpu.l1i.prefetcher: CONGRATS: SUCCESS in inserting new FT entry found!!
15927000: system.cpu.l1i.prefetcher: INSERTENTRY(): spatio_region:       0XF7, pc:   0x47bc80, physical addr:    0x7bc80
15927000: system.cpu.l1i.prefetcher: Created FT entry with:   0x47bc80
15927000: system.cpu.l1i.prefetcher: CONGRATS: SUCCESS in inserting new FT entry found!!
15928000: system.cpu.l1d.prefetcher: INSERTENTRY(): spatio_region:      0X1AD, pc:   0x47bc21, physical addr:    0xd6c58
15928000: system.cpu.l1d.prefetcher: Created FT entry with:   0x47bc21
15928000: system.cpu.l1d.prefetcher: CONGRATS: SUCCESS in inserting new FT entry found!!
15991000: system.cpu.l1i.prefetcher: INSERTENTRY(): spatio_region:       0XF7, pc:   0x47bcc0, physical addr:    0x7bcc0
15991000: system.cpu.l1i.prefetcher: Created FT entry with:   0x47bcc0
15991000: system.cpu.l1i.prefetcher: CONGRATS: SUCCESS in inserting new FT entry found!!
16074000: system.cpu.l1i.prefetcher: INSERTENTRY(): spatio_region:       0XF7, pc:   0x47bd00, physical addr:    0x7bd00
16074000: system.cpu.l1i.prefetcher: Created FT entry with:   0x47bd00
16074000: system.cpu.l1i.prefetcher: CONGRATS: SUCCESS in inserting new FT entry found!!
16158000: system.cpu.l1d.prefetcher: Updated AGT entry with:          0
16395000: system.cpu.l1i.prefetcher: INSERTENTRY(): spatio_region:       0XF7, pc:   0x47bd40, physical addr:    0x7bd40
16395000: system.cpu.l1i.prefetcher: Created FT entry with:   0x47bd40
16395000: system.cpu.l1i.prefetcher: CONGRATS: SUCCESS in inserting new FT entry found!!
16459000: system.cpu.l1i.prefetcher: INSERTENTRY(): spatio_region:       0X3E, pc:   0x41f010, physical addr:    0x1f000
16459000: system.cpu.l1i.prefetcher: Created FT entry with:   0x41f010
16459000: system.cpu.l1i.prefetcher: CONGRATS: SUCCESS in inserting new FT entry found!!
16536000: system.cpu.l1i.prefetcher: INSERTENTRY(): spatio_region:       0X3E, pc:   0x41f040, physical addr:    0x1f040
16536000: system.cpu.l1i.prefetcher: Created FT entry with:   0x41f040
16536000: system.cpu.l1i.prefetcher: CONGRATS: SUCCESS in inserting new FT entry found!!
16542000: system.cpu.l1d.prefetcher: INSERTENTRY(): spatio_region:      0X17E, pc:   0x41f016, physical addr:    0xbf790
16542000: system.cpu.l1d.prefetcher: Created FT entry with:   0x41f016
16542000: system.cpu.l1d.prefetcher: CONGRATS: SUCCESS in inserting new FT entry found!!
16600000: system.cpu.l1i.prefetcher: INSERTENTRY(): spatio_region:       0X3E, pc:   0x41f080, physical addr:    0x1f080
16600000: system.cpu.l1i.prefetcher: Created FT entry with:   0x41f080
16600000: system.cpu.l1i.prefetcher: CONGRATS: SUCCESS in inserting new FT entry found!!
16635000: system.cpu.l1d.prefetcher: Updated AGT entry with:          0
16636000: system.cpu.l1d.prefetcher: Updated AGT entry with:          0
16691000: system.cpu.l1i.prefetcher: INSERTENTRY(): spatio_region:       0X3E, pc:   0x41f180, physical addr:    0x1f180
16691000: system.cpu.l1i.prefetcher: Created FT entry with:   0x41f180
16691000: system.cpu.l1i.prefetcher: CONGRATS: SUCCESS in inserting new FT entry found!!
16755000: system.cpu.l1i.prefetcher: INSERTENTRY(): spatio_region:       0X3E, pc:   0x41f1c0, physical addr:    0x1f1c0
16755000: system.cpu.l1i.prefetcher: Created FT entry with:   0x41f1c0
16755000: system.cpu.l1i.prefetcher: CONGRATS: SUCCESS in inserting new FT entry found!!
16819000: system.cpu.l1i.prefetcher: INSERTENTRY(): spatio_region:       0X3D, pc:   0x41ea50, physical addr:    0x1ea40
16819000: system.cpu.l1i.prefetcher: Created FT entry with:   0x41ea50
16819000: system.cpu.l1i.prefetcher: CONGRATS: SUCCESS in inserting new FT entry found!!
16883000: system.cpu.l1i.prefetcher: INSERTENTRY(): spatio_region:       0X3D, pc:   0x41ea80, physical addr:    0x1ea80
16883000: system.cpu.l1i.prefetcher: Created FT entry with:   0x41ea80
16883000: system.cpu.l1i.prefetcher: CONGRATS: SUCCESS in inserting new FT entry found!!
16888000: system.cpu.l1d.prefetcher: INSERTENTRY(): spatio_region:      0X17E, pc:   0x41ea54, physical addr:    0xbf6e4
16888000: system.cpu.l1d.prefetcher: Created FT entry with:   0x41ea54
16888000: system.cpu.l1d.prefetcher: CONGRATS: SUCCESS in inserting new FT entry found!!
16947000: system.cpu.l1i.prefetcher: INSERTENTRY(): spatio_region:       0X3D, pc:   0x41eac0, physical addr:    0x1eac0
16947000: system.cpu.l1i.prefetcher: Created FT entry with:   0x41eac0
16947000: system.cpu.l1i.prefetcher: CONGRATS: SUCCESS in inserting new FT entry found!!
17038000: system.cpu.l1i.prefetcher: INSERTENTRY(): spatio_region:       0X3D, pc:   0x41eba0, physical addr:    0x1eb80
17038000: system.cpu.l1i.prefetcher: Created FT entry with:   0x41eba0
17038000: system.cpu.l1i.prefetcher: CONGRATS: SUCCESS in inserting new FT entry found!!
17102000: system.cpu.l1i.prefetcher: INSERTENTRY(): spatio_region:       0X3D, pc:   0x41ebc0, physical addr:    0x1ebc0
17102000: system.cpu.l1i.prefetcher: Created FT entry with:   0x41ebc0
17102000: system.cpu.l1i.prefetcher: CONGRATS: SUCCESS in inserting new FT entry found!!
17166000: system.cpu.l1i.prefetcher: INSERTENTRY(): spatio_region:       0X3C, pc:   0x41e020, physical addr:    0x1e000
17166000: system.cpu.l1i.prefetcher: Created FT entry with:   0x41e020
17166000: system.cpu.l1i.prefetcher: CONGRATS: SUCCESS in inserting new FT entry found!!
17230000: system.cpu.l1i.prefetcher: INSERTENTRY(): spatio_region:       0X3C, pc:   0x41e040, physical addr:    0x1e040
17230000: system.cpu.l1i.prefetcher: Created FT entry with:   0x41e040
17230000: system.cpu.l1i.prefetcher: CONGRATS: SUCCESS in inserting new FT entry found!!
17294000: system.cpu.l1i.prefetcher: INSERTENTRY(): spatio_region:       0X3C, pc:   0x41e080, physical addr:    0x1e080
17294000: system.cpu.l1i.prefetcher: Created FT entry with:   0x41e080
17294000: system.cpu.l1i.prefetcher: CONGRATS: SUCCESS in inserting new FT entry found!!
17302000: system.cpu.l1d.prefetcher: Updated AGT entry with:          0
17311000: system.cpu.l1d.prefetcher: INSERTENTRY(): spatio_region:      0X17F, pc:   0x41e06d, physical addr:    0xbf818
17311000: system.cpu.l1d.prefetcher: Created FT entry with:   0x41e06d
17311000: system.cpu.l1d.prefetcher: CONGRATS: SUCCESS in inserting new FT entry found!!
17362000: system.cpu.l1i.prefetcher: INSERTENTRY(): spatio_region:       0X3C, pc:   0x41e0c0, physical addr:    0x1e0c0
17362000: system.cpu.l1i.prefetcher: Created FT entry with:   0x41e0c0
17362000: system.cpu.l1i.prefetcher: CONGRATS: SUCCESS in inserting new FT entry found!!
17377000: system.cpu.l1d.prefetcher: INSERTENTRY(): spatio_region:      0X17F, pc:   0x41e06d, physical addr:    0xbf810
17377000: system.cpu.l1d.prefetcher: Created FT entry with:   0x41e06d
17377000: system.cpu.l1d.prefetcher: CONGRATS: SUCCESS in inserting new FT entry found!!
17459000: system.cpu.l1i.prefetcher: INSERTENTRY(): spatio_region:       0X3C, pc:   0x41e100, physical addr:    0x1e100
17459000: system.cpu.l1i.prefetcher: Created FT entry with:   0x41e100
17459000: system.cpu.l1i.prefetcher: CONGRATS: SUCCESS in inserting new FT entry found!!
17536000: system.cpu.l1d.prefetcher: INSERTENTRY(): spatio_region:      0X17F, pc:   0x41e06d, physical addr:    0xbf848
17536000: system.cpu.l1d.prefetcher: Created FT entry with:   0x41e06d
17536000: system.cpu.l1d.prefetcher: CONGRATS: SUCCESS in inserting new FT entry found!!
17537000: system.cpu.l1d.prefetcher: Updated AGT entry with:          0
17667000: system.cpu.l1d.prefetcher: Updated AGT entry with:          0
17668000: system.cpu.l1d.prefetcher: Updated AGT entry with:          0
17771000: system.cpu.l1d.prefetcher: Updated AGT entry with:          0
17772000: system.cpu.l1d.prefetcher: Updated AGT entry with:          0
17875000: system.cpu.l1d.prefetcher: Updated AGT entry with:          0
17876000: system.cpu.l1d.prefetcher: Updated AGT entry with:          0
17979000: system.cpu.l1d.prefetcher: Updated AGT entry with:          0
17980000: system.cpu.l1d.prefetcher: Updated AGT entry with:          0
18083000: system.cpu.l1d.prefetcher: Updated AGT entry with:          0
18084000: system.cpu.l1d.prefetcher: Updated AGT entry with:          0
18187000: system.cpu.l1d.prefetcher: Updated AGT entry with:          0
18188000: system.cpu.l1d.prefetcher: Updated AGT entry with:          0
18291000: system.cpu.l1d.prefetcher: Updated AGT entry with:          0
18292000: system.cpu.l1d.prefetcher: INSERTENTRY(): spatio_region:      0X17F, pc:   0x41e06d, physical addr:    0xbfa00
18292000: system.cpu.l1d.prefetcher: Created FT entry with:   0x41e06d
18292000: system.cpu.l1d.prefetcher: CONGRATS: SUCCESS in inserting new FT entry found!!
18395000: system.cpu.l1d.prefetcher: INSERTENTRY(): spatio_region:      0X17F, pc:   0x41e06d, physical addr:    0xbfa48
18395000: system.cpu.l1d.prefetcher: Created FT entry with:   0x41e06d
18395000: system.cpu.l1d.prefetcher: CONGRATS: SUCCESS in inserting new FT entry found!!
18396000: system.cpu.l1d.prefetcher: INSERTENTRY(): spatio_region:      0X17F, pc:   0x41e06d, physical addr:    0xbfa40
18396000: system.cpu.l1d.prefetcher: Created FT entry with:   0x41e06d
18396000: system.cpu.l1d.prefetcher: CONGRATS: SUCCESS in inserting new FT entry found!!
18499000: system.cpu.l1d.prefetcher: INSERTENTRY(): spatio_region:      0X17F, pc:   0x41e06d, physical addr:    0xbfa88
18499000: system.cpu.l1d.prefetcher: Created FT entry with:   0x41e06d
18499000: system.cpu.l1d.prefetcher: CONGRATS: SUCCESS in inserting new FT entry found!!
18500000: system.cpu.l1d.prefetcher: INSERTENTRY(): spatio_region:      0X17F, pc:   0x41e06d, physical addr:    0xbfa80
18500000: system.cpu.l1d.prefetcher: Created FT entry with:   0x41e06d
18500000: system.cpu.l1d.prefetcher: CONGRATS: SUCCESS in inserting new FT entry found!!
18603000: system.cpu.l1d.prefetcher: INSERTENTRY(): spatio_region:      0X17F, pc:   0x41e06d, physical addr:    0xbfac8
18603000: system.cpu.l1d.prefetcher: Created FT entry with:   0x41e06d
18603000: system.cpu.l1d.prefetcher: CONGRATS: SUCCESS in inserting new FT entry found!!
18604000: system.cpu.l1d.prefetcher: Updated AGT entry with:          0
18707000: system.cpu.l1d.prefetcher: Updated AGT entry with:          0
18708000: system.cpu.l1d.prefetcher: Updated AGT entry with:          0
18811000: system.cpu.l1d.prefetcher: Updated AGT entry with:          0
18812000: system.cpu.l1d.prefetcher: Updated AGT entry with:          0
18915000: system.cpu.l1d.prefetcher: Updated AGT entry with:          0
18916000: system.cpu.l1d.prefetcher: Updated AGT entry with:          0
19019000: system.cpu.l1d.prefetcher: Updated AGT entry with:          0
19020000: system.cpu.l1d.prefetcher: Updated AGT entry with:          0
19123000: system.cpu.l1d.prefetcher: Updated AGT entry with:          0
19124000: system.cpu.l1d.prefetcher: Updated AGT entry with:          0
19227000: system.cpu.l1d.prefetcher: Updated AGT entry with:          0
19228000: system.cpu.l1d.prefetcher: Updated AGT entry with:          0
19344000: system.cpu.l1d.prefetcher: Updated AGT entry with:          0
19345000: system.cpu.l1d.prefetcher: Updated AGT entry with:          0
19448000: system.cpu.l1d.prefetcher: Updated AGT entry with:          0
19449000: system.cpu.l1d.prefetcher: Updated AGT entry with:          0
19552000: system.cpu.l1d.prefetcher: Updated AGT entry with:          0
19553000: system.cpu.l1d.prefetcher: Updated AGT entry with:          0
19656000: system.cpu.l1d.prefetcher: Updated AGT entry with:          0
19657000: system.cpu.l1d.prefetcher: INSERTENTRY(): spatio_region:      0X17F, pc:   0x41e06d, physical addr:    0xbfd40
19657000: system.cpu.l1d.prefetcher: Created FT entry with:   0x41e06d
19657000: system.cpu.l1d.prefetcher: CONGRATS: SUCCESS in inserting new FT entry found!!
19760000: system.cpu.l1d.prefetcher: INSERTENTRY(): spatio_region:      0X17F, pc:   0x41e06d, physical addr:    0xbfd88
19760000: system.cpu.l1d.prefetcher: Created FT entry with:   0x41e06d
19760000: system.cpu.l1d.prefetcher: CONGRATS: SUCCESS in inserting new FT entry found!!
19761000: system.cpu.l1d.prefetcher: INSERTENTRY(): spatio_region:      0X17F, pc:   0x41e06d, physical addr:    0xbfd80
19761000: system.cpu.l1d.prefetcher: Created FT entry with:   0x41e06d
19761000: system.cpu.l1d.prefetcher: CONGRATS: SUCCESS in inserting new FT entry found!!
19864000: system.cpu.l1d.prefetcher: INSERTENTRY(): spatio_region:      0X17F, pc:   0x41e06d, physical addr:    0xbfdc8
19864000: system.cpu.l1d.prefetcher: Created FT entry with:   0x41e06d
19864000: system.cpu.l1d.prefetcher: CONGRATS: SUCCESS in inserting new FT entry found!!
19865000: system.cpu.l1d.prefetcher: INSERTENTRY(): spatio_region:      0X17F, pc:   0x41e06d, physical addr:    0xbfdc0
19865000: system.cpu.l1d.prefetcher: Created FT entry with:   0x41e06d
19865000: system.cpu.l1d.prefetcher: CONGRATS: SUCCESS in inserting new FT entry found!!
19968000: system.cpu.l1d.prefetcher: INSERTENTRY(): spatio_region:      0X17F, pc:   0x41e06d, physical addr:    0xbfe08
19968000: system.cpu.l1d.prefetcher: Created FT entry with:   0x41e06d
19968000: system.cpu.l1d.prefetcher: CONGRATS: SUCCESS in inserting new FT entry found!!
19969000: system.cpu.l1d.prefetcher: INSERTENTRY(): spatio_region:      0X17F, pc:   0x41e06d, physical addr:    0xbfe00
19969000: system.cpu.l1d.prefetcher: Created FT entry with:   0x41e06d
19969000: system.cpu.l1d.prefetcher: CONGRATS: SUCCESS in inserting new FT entry found!!
20072000: system.cpu.l1d.prefetcher: INSERTENTRY(): spatio_region:      0X17F, pc:   0x41e06d, physical addr:    0xbfe48
20072000: system.cpu.l1d.prefetcher: Created FT entry with:   0x41e06d
20072000: system.cpu.l1d.prefetcher: CONGRATS: SUCCESS in inserting new FT entry found!!
20073000: system.cpu.l1d.prefetcher: INSERTENTRY(): spatio_region:      0X17F, pc:   0x41e06d, physical addr:    0xbfe40
20073000: system.cpu.l1d.prefetcher: Created FT entry with:   0x41e06d
20073000: system.cpu.l1d.prefetcher: CONGRATS: SUCCESS in inserting new FT entry found!!
20176000: system.cpu.l1d.prefetcher: INSERTENTRY(): spatio_region:      0X17F, pc:   0x41e06d, physical addr:    0xbfe88
20176000: system.cpu.l1d.prefetcher: Created FT entry with:   0x41e06d
20176000: system.cpu.l1d.prefetcher: CONGRATS: SUCCESS in inserting new FT entry found!!
20177000: system.cpu.l1d.prefetcher: INSERTENTRY(): spatio_region:      0X17F, pc:   0x41e06d, physical addr:    0xbfe80
20177000: system.cpu.l1d.prefetcher: Created FT entry with:   0x41e06d
20177000: system.cpu.l1d.prefetcher: CONGRATS: SUCCESS in inserting new FT entry found!!
20280000: system.cpu.l1d.prefetcher: INSERTENTRY(): spatio_region:      0X17F, pc:   0x41e06d, physical addr:    0xbfec8
20280000: system.cpu.l1d.prefetcher: Created FT entry with:   0x41e06d
20280000: system.cpu.l1d.prefetcher: CONGRATS: SUCCESS in inserting new FT entry found!!
20281000: system.cpu.l1d.prefetcher: INSERTENTRY(): spatio_region:      0X17F, pc:   0x41e06d, physical addr:    0xbfec0
20281000: system.cpu.l1d.prefetcher: Created FT entry with:   0x41e06d
20281000: system.cpu.l1d.prefetcher: CONGRATS: SUCCESS in inserting new FT entry found!!
20384000: system.cpu.l1d.prefetcher: INSERTENTRY(): spatio_region:      0X17F, pc:   0x41e06d, physical addr:    0xbff08
20384000: system.cpu.l1d.prefetcher: Created FT entry with:   0x41e06d
20384000: system.cpu.l1d.prefetcher: CONGRATS: SUCCESS in inserting new FT entry found!!
20385000: system.cpu.l1d.prefetcher: INSERTENTRY(): spatio_region:      0X17F, pc:   0x41e06d, physical addr:    0xbff00
20385000: system.cpu.l1d.prefetcher: Created FT entry with:   0x41e06d
20385000: system.cpu.l1d.prefetcher: CONGRATS: SUCCESS in inserting new FT entry found!!
20488000: system.cpu.l1d.prefetcher: INSERTENTRY(): spatio_region:      0X17F, pc:   0x41e06d, physical addr:    0xbff48
20488000: system.cpu.l1d.prefetcher: Created FT entry with:   0x41e06d
20488000: system.cpu.l1d.prefetcher: CONGRATS: SUCCESS in inserting new FT entry found!!
20489000: system.cpu.l1d.prefetcher: INSERTENTRY(): spatio_region:      0X17F, pc:   0x41e06d, physical addr:    0xbff40
20489000: system.cpu.l1d.prefetcher: Created FT entry with:   0x41e06d
20489000: system.cpu.l1d.prefetcher: CONGRATS: SUCCESS in inserting new FT entry found!!
20592000: system.cpu.l1d.prefetcher: INSERTENTRY(): spatio_region:      0X17F, pc:   0x41e06d, physical addr:    0xbff88
20592000: system.cpu.l1d.prefetcher: Created FT entry with:   0x41e06d
20592000: system.cpu.l1d.prefetcher: CONGRATS: SUCCESS in inserting new FT entry found!!
20593000: system.cpu.l1d.prefetcher: INSERTENTRY(): spatio_region:      0X17F, pc:   0x41e06d, physical addr:    0xbff80
20593000: system.cpu.l1d.prefetcher: Created FT entry with:   0x41e06d
20593000: system.cpu.l1d.prefetcher: CONGRATS: SUCCESS in inserting new FT entry found!!
20696000: system.cpu.l1d.prefetcher: INSERTENTRY(): spatio_region:      0X17F, pc:   0x41e06d, physical addr:    0xbffc8
20696000: system.cpu.l1d.prefetcher: Created FT entry with:   0x41e06d
[...]
526424000: system.cpu.l1i.prefetcher: INSERTENTRY(): spatio_region:        0X2, pc:   0x4016e0, physical addr:     0x16c0
526424000: system.cpu.l1i.prefetcher: Created FT entry with:   0x4016e0
526424000: system.cpu.l1i.prefetcher: CONGRATS: SUCCESS in inserting new FT entry found!!
526506000: system.cpu.l1d.prefetcher: INSERTENTRY(): spatio_region:      0X183, pc:   0x4016e4, physical addr:    0xc1ff8
526506000: system.cpu.l1d.prefetcher: Created FT entry with:   0x4016e4
526506000: system.cpu.l1d.prefetcher: CONGRATS: SUCCESS in inserting new FT entry found!!
526648000: system.cpu.l1d.prefetcher: INSERTENTRY(): spatio_region:      0X182, pc:   0x401ca4, physical addr:    0xc1240
526648000: system.cpu.l1d.prefetcher: Created FT entry with:   0x401ca4
526648000: system.cpu.l1d.prefetcher: CONGRATS: SUCCESS in inserting new FT entry found!!
526672000: system.cpu.l1i.prefetcher: INSERTENTRY(): spatio_region:        0X3, pc:   0x401c30, physical addr:     0x1c00
526672000: system.cpu.l1i.prefetcher: Created FT entry with:   0x401c30
526672000: system.cpu.l1i.prefetcher: CONGRATS: SUCCESS in inserting new FT entry found!!
526726000: system.cpu.l1i.prefetcher: INSERTENTRY(): spatio_region:      0X124, pc:   0x4920f0, physical addr:    0x920c0
526726000: system.cpu.l1i.prefetcher: Created FT entry with:   0x4920f0
526726000: system.cpu.l1i.prefetcher: CONGRATS: SUCCESS in inserting new FT entry found!!
526803000: system.cpu.l1i.prefetcher: INSERTENTRY(): spatio_region:      0X124, pc:   0x492100, physical addr:    0x92100
526803000: system.cpu.l1i.prefetcher: Created FT entry with:   0x492100
526803000: system.cpu.l1i.prefetcher: CONGRATS: SUCCESS in inserting new FT entry found!!
526867000: system.cpu.l1i.prefetcher: INSERTENTRY(): spatio_region:      0X123, pc:   0x491fc0, physical addr:    0x91fc0
526867000: system.cpu.l1i.prefetcher: Created FT entry with:   0x491fc0
526867000: system.cpu.l1i.prefetcher: CONGRATS: SUCCESS in inserting new FT entry found!!
526944000: system.cpu.l1i.prefetcher: INSERTENTRY(): spatio_region:      0X124, pc:   0x492000, physical addr:    0x92000
526944000: system.cpu.l1i.prefetcher: Created FT entry with:   0x492000
526944000: system.cpu.l1i.prefetcher: CONGRATS: SUCCESS in inserting new FT entry found!!
526956000: system.cpu.l1d.prefetcher: INSERTENTRY(): spatio_region:      0X162, pc:   0x491fd1, physical addr:    0xb1010
526956000: system.cpu.l1d.prefetcher: Created FT entry with:   0x491fd1
526956000: system.cpu.l1d.prefetcher: CONGRATS: SUCCESS in inserting new FT entry found!!
527012000: system.cpu.l1i.prefetcher: INSERTENTRY(): spatio_region:      0X124, pc:   0x492040, physical addr:    0x92040
527012000: system.cpu.l1i.prefetcher: Created FT entry with:   0x492040
527012000: system.cpu.l1i.prefetcher: CONGRATS: SUCCESS in inserting new FT entry found!!
527015000: system.cpu.l1d.prefetcher: INSERTENTRY(): spatio_region:      0X184, pc:   0x491ff6, physical addr:    0xc22f8
527015000: system.cpu.l1d.prefetcher: Created FT entry with:   0x491ff6
527015000: system.cpu.l1d.prefetcher: CONGRATS: SUCCESS in inserting new FT entry found!!
527080000: system.cpu.l1i.prefetcher: INSERTENTRY(): spatio_region:      0X124, pc:   0x492080, physical addr:    0x92080
527080000: system.cpu.l1i.prefetcher: Created FT entry with:   0x492080
527080000: system.cpu.l1i.prefetcher: CONGRATS: SUCCESS in inserting new FT entry found!!
527082000: system.cpu.l1d.prefetcher: INSERTENTRY(): spatio_region:      0X182, pc:   0x492021, physical addr:    0xc1288
527082000: system.cpu.l1d.prefetcher: Created FT entry with:   0x492021
527082000: system.cpu.l1d.prefetcher: CONGRATS: SUCCESS in inserting new FT entry found!!
527200000: system.cpu.l1i.prefetcher: INSERTENTRY(): spatio_region:        0X5, pc:   0x402f00, physical addr:     0x2f00
527200000: system.cpu.l1i.prefetcher: Created FT entry with:   0x402f00
527200000: system.cpu.l1i.prefetcher: CONGRATS: SUCCESS in inserting new FT entry found!!
527264000: system.cpu.l1i.prefetcher: INSERTENTRY(): spatio_region:      0X128, pc:   0x494590, physical addr:    0x94580
527264000: system.cpu.l1i.prefetcher: Created FT entry with:   0x494590
527264000: system.cpu.l1i.prefetcher: CONGRATS: SUCCESS in inserting new FT entry found!!
527341000: system.cpu.l1i.prefetcher: INSERTENTRY(): spatio_region:      0X128, pc:   0x4945c0, physical addr:    0x945c0
527341000: system.cpu.l1i.prefetcher: Created FT entry with:   0x4945c0
527341000: system.cpu.l1i.prefetcher: CONGRATS: SUCCESS in inserting new FT entry found!!
527409000: system.cpu.l1i.prefetcher: INSERTENTRY(): spatio_region:       0X20, pc:   0x410000, physical addr:    0x10000
527409000: system.cpu.l1i.prefetcher: Created FT entry with:   0x410000
527409000: system.cpu.l1i.prefetcher: CONGRATS: SUCCESS in inserting new FT entry found!!
527530000: system.cpu.l1i.prefetcher: INSERTENTRY(): spatio_region:       0X20, pc:   0x410040, physical addr:    0x10040
527530000: system.cpu.l1i.prefetcher: Created FT entry with:   0x410040
527530000: system.cpu.l1i.prefetcher: CONGRATS: SUCCESS in inserting new FT entry found!!
527596000: system.cpu.l1i.prefetcher: INSERTENTRY(): spatio_region:       0X20, pc:   0x410080, physical addr:    0x10080
527596000: system.cpu.l1i.prefetcher: Created FT entry with:   0x410080
527596000: system.cpu.l1i.prefetcher: CONGRATS: SUCCESS in inserting new FT entry found!!
527687000: system.cpu.l1i.prefetcher: INSERTENTRY(): spatio_region:       0X20, pc:   0x4100c0, physical addr:    0x100c0
527687000: system.cpu.l1i.prefetcher: Created FT entry with:   0x4100c0
527687000: system.cpu.l1i.prefetcher: CONGRATS: SUCCESS in inserting new FT entry found!!
527711000: system.cpu.l1d.prefetcher: INSERTENTRY(): spatio_region:      0X182, pc:   0x4100a8, physical addr:    0xc1228
527711000: system.cpu.l1d.prefetcher: Created FT entry with:   0x4100a8
527711000: system.cpu.l1d.prefetcher: CONGRATS: SUCCESS in inserting new FT entry found!!
527751000: system.cpu.l1i.prefetcher: INSERTENTRY(): spatio_region:       0X20, pc:   0x410100, physical addr:    0x10100
527751000: system.cpu.l1i.prefetcher: Created FT entry with:   0x410100
527751000: system.cpu.l1i.prefetcher: CONGRATS: SUCCESS in inserting new FT entry found!!
527815000: system.cpu.l1i.prefetcher: INSERTENTRY(): spatio_region:       0X31, pc:   0x4188a0, physical addr:    0x18880
527815000: system.cpu.l1i.prefetcher: Created FT entry with:   0x4188a0
527815000: system.cpu.l1i.prefetcher: CONGRATS: SUCCESS in inserting new FT entry found!!
527892000: system.cpu.l1i.prefetcher: INSERTENTRY(): spatio_region:       0X31, pc:   0x4188c0, physical addr:    0x188c0
527892000: system.cpu.l1i.prefetcher: Created FT entry with:   0x4188c0
527892000: system.cpu.l1i.prefetcher: CONGRATS: SUCCESS in inserting new FT entry found!!
527956000: system.cpu.l1i.prefetcher: INSERTENTRY(): spatio_region:       0X31, pc:   0x418900, physical addr:    0x18900
527956000: system.cpu.l1i.prefetcher: Created FT entry with:   0x418900
527956000: system.cpu.l1i.prefetcher: CONGRATS: SUCCESS in inserting new FT entry found!!
527964000: system.cpu.l1d.prefetcher: INSERTENTRY(): spatio_region:      0X1A7, pc:   0x4188c4, physical addr:    0xd3c58
527964000: system.cpu.l1d.prefetcher: Created FT entry with:   0x4188c4
527964000: system.cpu.l1d.prefetcher: CONGRATS: SUCCESS in inserting new FT entry found!!
528020000: system.cpu.l1i.prefetcher: INSERTENTRY(): spatio_region:       0X30, pc:   0x4185a0, physical addr:    0x18580
528020000: system.cpu.l1i.prefetcher: Created FT entry with:   0x4185a0
528020000: system.cpu.l1i.prefetcher: CONGRATS: SUCCESS in inserting new FT entry found!!
528084000: system.cpu.l1i.prefetcher: INSERTENTRY(): spatio_region:       0X30, pc:   0x4185c0, physical addr:    0x185c0
528084000: system.cpu.l1i.prefetcher: Created FT entry with:   0x4185c0
528084000: system.cpu.l1i.prefetcher: CONGRATS: SUCCESS in inserting new FT entry found!!
528097000: system.cpu.l1d.prefetcher: INSERTENTRY(): spatio_region:      0X1A7, pc:   0x4185aa, physical addr:    0xd3c38
528097000: system.cpu.l1d.prefetcher: Created FT entry with:   0x4185aa
528097000: system.cpu.l1d.prefetcher: CONGRATS: SUCCESS in inserting new FT entry found!!
528100000: system.cpu.l1d.prefetcher: INSERTENTRY(): spatio_region:      0X1A7, pc:   0x4185ac, physical addr:    0xd3c30
528100000: system.cpu.l1d.prefetcher: Created FT entry with:   0x4185ac
528100000: system.cpu.l1d.prefetcher: CONGRATS: SUCCESS in inserting new FT entry found!!
528148000: system.cpu.l1i.prefetcher: INSERTENTRY(): spatio_region:       0X30, pc:   0x418600, physical addr:    0x18600
528148000: system.cpu.l1i.prefetcher: Created FT entry with:   0x418600
528148000: system.cpu.l1i.prefetcher: CONGRATS: SUCCESS in inserting new FT entry found!!
528212000: system.cpu.l1i.prefetcher: INSERTENTRY(): spatio_region:       0X30, pc:   0x4187d0, physical addr:    0x187c0
528212000: system.cpu.l1i.prefetcher: Created FT entry with:   0x4187d0
528212000: system.cpu.l1i.prefetcher: CONGRATS: SUCCESS in inserting new FT entry found!!
528276000: system.cpu.l1i.prefetcher: INSERTENTRY(): spatio_region:       0X31, pc:   0x418800, physical addr:    0x18800
528276000: system.cpu.l1i.prefetcher: Created FT entry with:   0x418800
528276000: system.cpu.l1i.prefetcher: CONGRATS: SUCCESS in inserting new FT entry found!!
528282000: system.cpu.l1d.prefetcher: INSERTENTRY(): spatio_region:      0X1A7, pc:   0x4187d0, physical addr:    0xd3bf8
528282000: system.cpu.l1d.prefetcher: Created FT entry with:   0x4187d0
528282000: system.cpu.l1d.prefetcher: CONGRATS: SUCCESS in inserting new FT entry found!!
528286000: system.cpu.l1d.prefetcher: INSERTENTRY(): spatio_region:      0X1A7, pc:   0x4187e0, physical addr:    0xd3bf0
528286000: system.cpu.l1d.prefetcher: Created FT entry with:   0x4187e0
528286000: system.cpu.l1d.prefetcher: CONGRATS: SUCCESS in inserting new FT entry found!!
528344000: system.cpu.l1i.prefetcher: INSERTENTRY(): spatio_region:       0X30, pc:   0x418640, physical addr:    0x18640
528344000: system.cpu.l1i.prefetcher: Created FT entry with:   0x418640
528344000: system.cpu.l1i.prefetcher: CONGRATS: SUCCESS in inserting new FT entry found!!
528348000: system.cpu.l1d.prefetcher: INSERTENTRY(): spatio_region:      0X183, pc:   0x4185ee, physical addr:    0xc1c58
528348000: system.cpu.l1d.prefetcher: Created FT entry with:   0x4185ee
528348000: system.cpu.l1d.prefetcher: CONGRATS: SUCCESS in inserting new FT entry found!!
528408000: system.cpu.l1i.prefetcher: INSERTENTRY(): spatio_region:       0X30, pc:   0x418680, physical addr:    0x18680
528408000: system.cpu.l1i.prefetcher: Created FT entry with:   0x418680
528408000: system.cpu.l1i.prefetcher: CONGRATS: SUCCESS in inserting new FT entry found!!
528442000: system.cpu.l1d.prefetcher: INSERTENTRY(): spatio_region:      0X17E, pc:   0x418650, physical addr:    0xbf1e0
528442000: system.cpu.l1d.prefetcher: Created FT entry with:   0x418650
528442000: system.cpu.l1d.prefetcher: CONGRATS: SUCCESS in inserting new FT entry found!!
528472000: system.cpu.l1i.prefetcher: INSERTENTRY(): spatio_region:       0X30, pc:   0x4186f4, physical addr:    0x186c0
528472000: system.cpu.l1i.prefetcher: Created FT entry with:   0x4186f4
528472000: system.cpu.l1i.prefetcher: CONGRATS: SUCCESS in inserting new FT entry found!!
528536000: system.cpu.l1i.prefetcher: INSERTENTRY(): spatio_region:       0X30, pc:   0x418700, physical addr:    0x18700
528536000: system.cpu.l1i.prefetcher: Created FT entry with:   0x418700
528536000: system.cpu.l1i.prefetcher: CONGRATS: SUCCESS in inserting new FT entry found!!
528602000: system.cpu.l1i.prefetcher: INSERTENTRY(): spatio_region:       0X30, pc:   0x418740, physical addr:    0x18740
528602000: system.cpu.l1i.prefetcher: Created FT entry with:   0x418740
528602000: system.cpu.l1i.prefetcher: CONGRATS: SUCCESS in inserting new FT entry found!!
528666000: system.cpu.l1i.prefetcher: INSERTENTRY(): spatio_region:       0X30, pc:   0x418780, physical addr:    0x18780
528666000: system.cpu.l1i.prefetcher: Created FT entry with:   0x418780
528666000: system.cpu.l1i.prefetcher: CONGRATS: SUCCESS in inserting new FT entry found!!
528669000: system.cpu.l1d.prefetcher: INSERTENTRY(): spatio_region:      0X17E, pc:   0x41873d, physical addr:    0xbf200
528669000: system.cpu.l1d.prefetcher: Created FT entry with:   0x41873d
528669000: system.cpu.l1d.prefetcher: CONGRATS: SUCCESS in inserting new FT entry found!!
528732000: system.cpu.l1d.prefetcher: INSERTENTRY(): spatio_region:      0X17E, pc:   0x41874b, physical addr:    0xbf160
528732000: system.cpu.l1d.prefetcher: Created FT entry with:   0x41874b
528732000: system.cpu.l1d.prefetcher: CONGRATS: SUCCESS in inserting new FT entry found!!
528733000: system.cpu.l1d.prefetcher: INSERTENTRY(): spatio_region:      0X17E, pc:   0x41874f, physical addr:    0xbf168
528733000: system.cpu.l1d.prefetcher: Created FT entry with:   0x41874f
528733000: system.cpu.l1d.prefetcher: CONGRATS: SUCCESS in inserting new FT entry found!!
528826000: system.cpu.l1d.prefetcher: INSERTENTRY(): spatio_region:      0X17E, pc:   0x4186eb, physical addr:    0xbf1a8
528826000: system.cpu.l1d.prefetcher: Created FT entry with:   0x4186eb
528826000: system.cpu.l1d.prefetcher: CONGRATS: SUCCESS in inserting new FT entry found!!
528892000: system.cpu.l1d.prefetcher: INSERTENTRY(): spatio_region:      0X17E, pc:   0x4186ff, physical addr:    0xbf320
528892000: system.cpu.l1d.prefetcher: Created FT entry with:   0x4186ff
528892000: system.cpu.l1d.prefetcher: CONGRATS: SUCCESS in inserting new FT entry found!!
528955000: system.cpu.l1d.prefetcher: INSERTENTRY(): spatio_region:      0X17E, pc:   0x41873d, physical addr:    0xbf3e0
528955000: system.cpu.l1d.prefetcher: Created FT entry with:   0x41873d
528955000: system.cpu.l1d.prefetcher: CONGRATS: SUCCESS in inserting new FT entry found!!
529018000: system.cpu.l1d.prefetcher: INSERTENTRY(): spatio_region:      0X17E, pc:   0x41874b, physical addr:    0xbf340
529018000: system.cpu.l1d.prefetcher: Created FT entry with:   0x41874b
529018000: system.cpu.l1d.prefetcher: CONGRATS: SUCCESS in inserting new FT entry found!!
529019000: system.cpu.l1d.prefetcher: INSERTENTRY(): spatio_region:      0X17E, pc:   0x41874f, physical addr:    0xbf348
529019000: system.cpu.l1d.prefetcher: Created FT entry with:   0x41874f
529019000: system.cpu.l1d.prefetcher: CONGRATS: SUCCESS in inserting new FT entry found!!
529110000: system.cpu.l1d.prefetcher: INSERTENTRY(): spatio_region:      0X17E, pc:   0x4186eb, physical addr:    0xbf388
529110000: system.cpu.l1d.prefetcher: Created FT entry with:   0x4186eb
529110000: system.cpu.l1d.prefetcher: CONGRATS: SUCCESS in inserting new FT entry found!!
529176000: system.cpu.l1d.prefetcher: INSERTENTRY(): spatio_region:      0X17E, pc:   0x4186ff, physical addr:    0xbf500
529176000: system.cpu.l1d.prefetcher: Created FT entry with:   0x4186ff
529176000: system.cpu.l1d.prefetcher: CONGRATS: SUCCESS in inserting new FT entry found!!
529239000: system.cpu.l1d.prefetcher: INSERTENTRY(): spatio_region:      0X17E, pc:   0x41873d, physical addr:    0xbf5c0
529239000: system.cpu.l1d.prefetcher: Created FT entry with:   0x41873d
529239000: system.cpu.l1d.prefetcher: CONGRATS: SUCCESS in inserting new FT entry found!!
529334000: system.cpu.l1d.prefetcher: INSERTENTRY(): spatio_region:      0X17E, pc:   0x4186eb, physical addr:    0xbf568
529334000: system.cpu.l1d.prefetcher: Created FT entry with:   0x4186eb
529334000: system.cpu.l1d.prefetcher: CONGRATS: SUCCESS in inserting new FT entry found!!
529432000: system.cpu.l1i.prefetcher: INSERTENTRY(): spatio_region:       0X31, pc:   0x418840, physical addr:    0x18840
529432000: system.cpu.l1i.prefetcher: Created FT entry with:   0x418840
529432000: system.cpu.l1i.prefetcher: CONGRATS: SUCCESS in inserting new FT entry found!!
529535000: system.cpu.l1i.prefetcher: INSERTENTRY(): spatio_region:       0X31, pc:   0x418940, physical addr:    0x18940
529535000: system.cpu.l1i.prefetcher: Created FT entry with:   0x418940
529535000: system.cpu.l1i.prefetcher: CONGRATS: SUCCESS in inserting new FT entry found!!
529848000: system.cpu.l1i.prefetcher: INSERTENTRY(): spatio_region:       0X31, pc:   0x418b18, physical addr:    0x18b00
529848000: system.cpu.l1i.prefetcher: Created FT entry with:   0x418b18
529848000: system.cpu.l1i.prefetcher: CONGRATS: SUCCESS in inserting new FT entry found!!
529912000: system.cpu.l1i.prefetcher: INSERTENTRY(): spatio_region:       0X31, pc:   0x418b40, physical addr:    0x18b40
529912000: system.cpu.l1i.prefetcher: Created FT entry with:   0x418b40
529912000: system.cpu.l1i.prefetcher: CONGRATS: SUCCESS in inserting new FT entry found!!
529982000: system.cpu.l1i.prefetcher: INSERTENTRY(): spatio_region:       0X31, pc:   0x418980, physical addr:    0x18980
529982000: system.cpu.l1i.prefetcher: Created FT entry with:   0x418980
529982000: system.cpu.l1i.prefetcher: CONGRATS: SUCCESS in inserting new FT entry found!!
530050000: system.cpu.l1i.prefetcher: INSERTENTRY(): spatio_region:       0X31, pc:   0x4189c0, physical addr:    0x189c0
530050000: system.cpu.l1i.prefetcher: Created FT entry with:   0x4189c0
530050000: system.cpu.l1i.prefetcher: CONGRATS: SUCCESS in inserting new FT entry found!!
530124000: system.cpu.l1i.prefetcher: INSERTENTRY(): spatio_region:       0X31, pc:   0x418a00, physical addr:    0x18a00
530124000: system.cpu.l1i.prefetcher: Created FT entry with:   0x418a00
530124000: system.cpu.l1i.prefetcher: CONGRATS: SUCCESS in inserting new FT entry found!!
530206000: system.cpu.l1d.prefetcher: INSERTENTRY(): spatio_region:      0X17E, pc:   0x418978, physical addr:    0xbf588
530206000: system.cpu.l1d.prefetcher: Created FT entry with:   0x418978
530206000: system.cpu.l1d.prefetcher: CONGRATS: SUCCESS in inserting new FT entry found!!
530292000: system.cpu.l1i.prefetcher: INSERTENTRY(): spatio_region:       0X31, pc:   0x418a70, physical addr:    0x18a40
530292000: system.cpu.l1i.prefetcher: Created FT entry with:   0x418a70
530292000: system.cpu.l1i.prefetcher: CONGRATS: SUCCESS in inserting new FT entry found!!
530356000: system.cpu.l1i.prefetcher: INSERTENTRY(): spatio_region:       0X31, pc:   0x418a80, physical addr:    0x18a80
530356000: system.cpu.l1i.prefetcher: Created FT entry with:   0x418a80
530356000: system.cpu.l1i.prefetcher: CONGRATS: SUCCESS in inserting new FT entry found!!
530420000: system.cpu.l1i.prefetcher: INSERTENTRY(): spatio_region:       0X31, pc:   0x418ac0, physical addr:    0x18ac0
530420000: system.cpu.l1i.prefetcher: Created FT entry with:   0x418ac0
530420000: system.cpu.l1i.prefetcher: CONGRATS: SUCCESS in inserting new FT entry found!!
530503000: system.cpu.l1i.prefetcher: INSERTENTRY(): spatio_region:       0X31, pc:   0x418b80, physical addr:    0x18b80
530503000: system.cpu.l1i.prefetcher: Created FT entry with:   0x418b80
530503000: system.cpu.l1i.prefetcher: CONGRATS: SUCCESS in inserting new FT entry found!!
530583000: system.cpu.l1i.prefetcher: INSERTENTRY(): spatio_region:       0X8F, pc:   0x447e40, physical addr:    0x47e40
530583000: system.cpu.l1i.prefetcher: Created FT entry with:   0x447e40
530583000: system.cpu.l1i.prefetcher: CONGRATS: SUCCESS in inserting new FT entry found!!
530660000: system.cpu.l1i.prefetcher: INSERTENTRY(): spatio_region:       0X8F, pc:   0x447e80, physical addr:    0x47e80
530660000: system.cpu.l1i.prefetcher: Created FT entry with:   0x447e80
530660000: system.cpu.l1i.prefetcher: CONGRATS: SUCCESS in inserting new FT entry found!!
530728000: system.cpu.l1i.prefetcher: INSERTENTRY(): spatio_region:       0X8F, pc:   0x447ec0, physical addr:    0x47ec0
530728000: system.cpu.l1i.prefetcher: Created FT entry with:   0x447ec0
530728000: system.cpu.l1i.prefetcher: CONGRATS: SUCCESS in inserting new FT entry found!!
Exit Eventexiting with last active thread context
Dump stats at the end of the ROI!
