
---------- Begin Simulation Statistics ----------
final_tick                                  530732000                       # Number of ticks from beginning of simulation (restored from checkpoints and never reset)
host_inst_rate                                  46529                       # Simulator instruction rate (inst/s)
host_mem_usage                                2234684                       # Number of bytes of host memory used
host_op_rate                                    92868                       # Simulator op (including micro ops) rate (op/s)
host_seconds                                     2.64                       # Real time elapsed on the host
host_tick_rate                              200704240                       # Simulator tick rate (ticks/s)
sim_freq                                 1000000000000                       # Frequency of simulated ticks
sim_insts                                      123029                       # Number of instructions simulated
sim_ops                                        245572                       # Number of ops (including micro ops) simulated
sim_seconds                                  0.000531                       # Number of seconds simulated
sim_ticks                                   530732000                       # Number of ticks simulated
system.cpu.committedInsts                      123029                       # Number of instructions committed
system.cpu.committedOps                        245572                       # Number of ops (including micro ops) committed
system.cpu.cpi                               4.313877                       # CPI: cycles per instruction
system.cpu.discardedOps                         53552                       # Number of ops (including micro ops) which were discarded before commit
system.cpu.idleCycles                          103466                       # Total number of cycles that the object has spent stopped
system.cpu.ipc                               0.231810                       # IPC: instructions per cycle
system.cpu.numCycles                           530732                       # number of cpu cycles simulated
system.cpu.numFetchSuspends                         0                       # Number of times Execute suspended instruction fetching
system.cpu.numWorkItemsCompleted                    0                       # number of work items this cpu completed
system.cpu.numWorkItemsStarted                      0                       # number of work items this cpu started
system.cpu.op_class_0::No_OpClass                 287      0.12%      0.12% # Class of committed instruction
system.cpu.op_class_0::IntAlu                  126903     51.68%     51.79% # Class of committed instruction
system.cpu.op_class_0::IntMult                      5      0.00%     51.80% # Class of committed instruction
system.cpu.op_class_0::IntDiv                      21      0.01%     51.80% # Class of committed instruction
system.cpu.op_class_0::FloatAdd                 32905     13.40%     65.20% # Class of committed instruction
system.cpu.op_class_0::FloatCmp                     0      0.00%     65.20% # Class of committed instruction
system.cpu.op_class_0::FloatCvt                     0      0.00%     65.20% # Class of committed instruction
system.cpu.op_class_0::FloatMult                    0      0.00%     65.20% # Class of committed instruction
system.cpu.op_class_0::FloatMultAcc                 0      0.00%     65.20% # Class of committed instruction
system.cpu.op_class_0::FloatDiv                     0      0.00%     65.20% # Class of committed instruction
system.cpu.op_class_0::FloatMisc                    0      0.00%     65.20% # Class of committed instruction
system.cpu.op_class_0::FloatSqrt                    0      0.00%     65.20% # Class of committed instruction
system.cpu.op_class_0::SimdAdd                      0      0.00%     65.20% # Class of committed instruction
system.cpu.op_class_0::SimdAddAcc                   0      0.00%     65.20% # Class of committed instruction
system.cpu.op_class_0::SimdAlu                     96      0.04%     65.24% # Class of committed instruction
system.cpu.op_class_0::SimdCmp                      0      0.00%     65.24% # Class of committed instruction
system.cpu.op_class_0::SimdCvt                     46      0.02%     65.26% # Class of committed instruction
system.cpu.op_class_0::SimdMisc                   217      0.09%     65.35% # Class of committed instruction
system.cpu.op_class_0::SimdMult                     0      0.00%     65.35% # Class of committed instruction
system.cpu.op_class_0::SimdMultAcc                  0      0.00%     65.35% # Class of committed instruction
system.cpu.op_class_0::SimdShift                    0      0.00%     65.35% # Class of committed instruction
system.cpu.op_class_0::SimdShiftAcc                 0      0.00%     65.35% # Class of committed instruction
system.cpu.op_class_0::SimdDiv                      0      0.00%     65.35% # Class of committed instruction
system.cpu.op_class_0::SimdSqrt                     0      0.00%     65.35% # Class of committed instruction
system.cpu.op_class_0::SimdFloatAdd             16386      6.67%     72.02% # Class of committed instruction
system.cpu.op_class_0::SimdFloatAlu                 0      0.00%     72.02% # Class of committed instruction
system.cpu.op_class_0::SimdFloatCmp                 0      0.00%     72.02% # Class of committed instruction
system.cpu.op_class_0::SimdFloatCvt                 2      0.00%     72.02% # Class of committed instruction
system.cpu.op_class_0::SimdFloatDiv                 0      0.00%     72.02% # Class of committed instruction
system.cpu.op_class_0::SimdFloatMisc                0      0.00%     72.02% # Class of committed instruction
system.cpu.op_class_0::SimdFloatMult            16384      6.67%     78.69% # Class of committed instruction
system.cpu.op_class_0::SimdFloatMultAcc             0      0.00%     78.69% # Class of committed instruction
system.cpu.op_class_0::SimdFloatSqrt                0      0.00%     78.69% # Class of committed instruction
system.cpu.op_class_0::SimdReduceAdd                0      0.00%     78.69% # Class of committed instruction
system.cpu.op_class_0::SimdReduceAlu                0      0.00%     78.69% # Class of committed instruction
system.cpu.op_class_0::SimdReduceCmp                0      0.00%     78.69% # Class of committed instruction
system.cpu.op_class_0::SimdFloatReduceAdd            0      0.00%     78.69% # Class of committed instruction
system.cpu.op_class_0::SimdFloatReduceCmp            0      0.00%     78.69% # Class of committed instruction
system.cpu.op_class_0::SimdAes                      0      0.00%     78.69% # Class of committed instruction
system.cpu.op_class_0::SimdAesMix                   0      0.00%     78.69% # Class of committed instruction
system.cpu.op_class_0::SimdSha1Hash                 0      0.00%     78.69% # Class of committed instruction
system.cpu.op_class_0::SimdSha1Hash2                0      0.00%     78.69% # Class of committed instruction
system.cpu.op_class_0::SimdSha256Hash               0      0.00%     78.69% # Class of committed instruction
system.cpu.op_class_0::SimdSha256Hash2              0      0.00%     78.69% # Class of committed instruction
system.cpu.op_class_0::SimdShaSigma2                0      0.00%     78.69% # Class of committed instruction
system.cpu.op_class_0::SimdShaSigma3                0      0.00%     78.69% # Class of committed instruction
system.cpu.op_class_0::SimdPredAlu                  0      0.00%     78.69% # Class of committed instruction
system.cpu.op_class_0::MemRead                   1483      0.60%     79.30% # Class of committed instruction
system.cpu.op_class_0::MemWrite                  1160      0.47%     79.77% # Class of committed instruction
system.cpu.op_class_0::FloatMemRead             32825     13.37%     93.14% # Class of committed instruction
system.cpu.op_class_0::FloatMemWrite            16852      6.86%    100.00% # Class of committed instruction
system.cpu.op_class_0::IprAccess                    0      0.00%    100.00% # Class of committed instruction
system.cpu.op_class_0::InstPrefetch                 0      0.00%    100.00% # Class of committed instruction
system.cpu.op_class_0::total                   245572                       # Class of committed instruction
system.cpu.tickCycles                          427266                       # Number of cycles that the object actually ticked
system.cpu.workload.numSyscalls                    10                       # Number of system calls
system.l1_to_l2.snoop_filter.hit_multi_requests            0                       # Number of requests hitting in the snoop filter with multiple (>1) holders of the requested data.
system.l1_to_l2.snoop_filter.hit_multi_snoops            0                       # Number of snoops hitting in the snoop filter with multiple (>1) holders of the requested data.
system.l1_to_l2.snoop_filter.hit_single_requests         1867                       # Number of requests hitting in the snoop filter with a single holder of the requested data.
system.l1_to_l2.snoop_filter.hit_single_snoops            0                       # Number of snoops hitting in the snoop filter with a single holder of the requested data.
system.l1_to_l2.snoop_filter.tot_requests         4735                       # Total number of requests made to the snoop filter.
system.l1_to_l2.snoop_filter.tot_snoops             0                       # Total number of snoops made to the snoop filter.
system.membus.snoop_filter.hit_multi_requests            0                       # Number of requests hitting in the snoop filter with multiple (>1) holders of the requested data.
system.membus.snoop_filter.hit_multi_snoops            0                       # Number of snoops hitting in the snoop filter with multiple (>1) holders of the requested data.
system.membus.snoop_filter.hit_single_requests            0                       # Number of requests hitting in the snoop filter with a single holder of the requested data.
system.membus.snoop_filter.hit_single_snoops            0                       # Number of snoops hitting in the snoop filter with a single holder of the requested data.
system.membus.snoop_filter.tot_requests          1816                       # Total number of requests made to the snoop filter.
system.membus.snoop_filter.tot_snoops               0                       # Total number of snoops made to the snoop filter.
system.clk_domain.clock                          1000                       # Clock period in ticks
system.clk_domain.voltage_domain.voltage            1                       # Voltage in Volts
system.cpu.branchPred.lookups                       0                       # Number of BP lookups
system.cpu.branchPred.condPredicted                 0                       # Number of conditional branches predicted
system.cpu.branchPred.condIncorrect                 0                       # Number of conditional branches incorrect
system.cpu.branchPred.BTBLookups                    0                       # Number of BTB lookups
system.cpu.branchPred.BTBHits                       0                       # Number of BTB hits
system.cpu.branchPred.BTBHitPct                   nan                       # BTB Hit Percentage
system.cpu.branchPred.RASUsed                       0                       # Number of times the RAS was used to get a target.
system.cpu.branchPred.RASIncorrect                  0                       # Number of incorrect RAS predictions.
system.cpu.branchPred.indirectLookups               0                       # Number of indirect predictor lookups.
system.cpu.branchPred.indirectHits                  0                       # Number of indirect target hits.
system.cpu.branchPred.indirectMisses                0                       # Number of indirect misses.
system.cpu.branchPred.indirectMispredicted            0                       # Number of mispredicted indirect branches.
system.cpu.branchPred.loop_predictor.correct            0                       # Number of times the loop predictor is the provider and the prediction is correct
system.cpu.branchPred.loop_predictor.wrong            0                       # Number of times the loop predictor is the provider and the prediction is wrong
system.cpu.branchPred.tage.longestMatchProviderCorrect            0                       # Number of times TAGE Longest Match is the provider and the prediction is correct
system.cpu.branchPred.tage.altMatchProviderCorrect            0                       # Number of times TAGE Alt Match is the provider and the prediction is correct
system.cpu.branchPred.tage.bimodalAltMatchProviderCorrect            0                       # Number of times TAGE Alt Match is the bimodal and it is the provider and the prediction is correct
system.cpu.branchPred.tage.bimodalProviderCorrect            0                       # Number of times there are no hits on the TAGE tables and the bimodal prediction is correct
system.cpu.branchPred.tage.longestMatchProviderWrong            0                       # Number of times TAGE Longest Match is the provider and the prediction is wrong
system.cpu.branchPred.tage.altMatchProviderWrong            0                       # Number of times TAGE Alt Match is the provider and the prediction is wrong
system.cpu.branchPred.tage.bimodalAltMatchProviderWrong            0                       # Number of times TAGE Alt Match is the bimodal and it is the provider and the prediction is wrong
system.cpu.branchPred.tage.bimodalProviderWrong            0                       # Number of times there are no hits on the TAGE tables and the bimodal prediction is wrong
system.cpu.branchPred.tage.altMatchProviderWouldHaveHit            0                       # Number of times TAGE Longest Match is the provider, the prediction is wrong and Alt Match prediction was correct
system.cpu.branchPred.tage.longestMatchProviderWouldHaveHit            0                       # Number of times TAGE Alt Match is the provider, the prediction is wrong and Longest Match prediction was correct
system.cpu.branchPred.tage.longestMatchProvider::0            0                       # TAGE provider for longest match
system.cpu.branchPred.tage.longestMatchProvider::1            0                       # TAGE provider for longest match
system.cpu.branchPred.tage.longestMatchProvider::2            0                       # TAGE provider for longest match
system.cpu.branchPred.tage.longestMatchProvider::3            0                       # TAGE provider for longest match
system.cpu.branchPred.tage.longestMatchProvider::4            0                       # TAGE provider for longest match
system.cpu.branchPred.tage.longestMatchProvider::5            0                       # TAGE provider for longest match
system.cpu.branchPred.tage.longestMatchProvider::6            0                       # TAGE provider for longest match
system.cpu.branchPred.tage.longestMatchProvider::7            0                       # TAGE provider for longest match
system.cpu.branchPred.tage.longestMatchProvider::8            0                       # TAGE provider for longest match
system.cpu.branchPred.tage.longestMatchProvider::9            0                       # TAGE provider for longest match
system.cpu.branchPred.tage.longestMatchProvider::10            0                       # TAGE provider for longest match
system.cpu.branchPred.tage.longestMatchProvider::11            0                       # TAGE provider for longest match
system.cpu.branchPred.tage.longestMatchProvider::12            0                       # TAGE provider for longest match
system.cpu.branchPred.tage.altMatchProvider::0            0                       # TAGE provider for alt match
system.cpu.branchPred.tage.altMatchProvider::1            0                       # TAGE provider for alt match
system.cpu.branchPred.tage.altMatchProvider::2            0                       # TAGE provider for alt match
system.cpu.branchPred.tage.altMatchProvider::3            0                       # TAGE provider for alt match
system.cpu.branchPred.tage.altMatchProvider::4            0                       # TAGE provider for alt match
system.cpu.branchPred.tage.altMatchProvider::5            0                       # TAGE provider for alt match
system.cpu.branchPred.tage.altMatchProvider::6            0                       # TAGE provider for alt match
system.cpu.branchPred.tage.altMatchProvider::7            0                       # TAGE provider for alt match
system.cpu.branchPred.tage.altMatchProvider::8            0                       # TAGE provider for alt match
system.cpu.branchPred.tage.altMatchProvider::9            0                       # TAGE provider for alt match
system.cpu.branchPred.tage.altMatchProvider::10            0                       # TAGE provider for alt match
system.cpu.branchPred.tage.altMatchProvider::11            0                       # TAGE provider for alt match
system.cpu.branchPred.tage.altMatchProvider::12            0                       # TAGE provider for alt match
system.cpu.dtb.rdAccesses                       35880                       # TLB accesses on read requests
system.cpu.dtb.wrAccesses                       18106                       # TLB accesses on write requests
system.cpu.dtb.rdMisses                           121                       # TLB misses on read requests
system.cpu.dtb.wrMisses                            30                       # TLB misses on write requests
system.cpu.dtb.walker.power_state.pwrStateResidencyTicks::UNDEFINED    530732000                       # Cumulative time (in ticks) in various power states
system.cpu.fetch2.intInstructions               16452                       # Number of integer instructions successfully decoded
system.cpu.fetch2.fpInstructions                    0                       # Number of floating point instructions successfully decoded
system.cpu.fetch2.vecInstructions                   0                       # Number of SIMD instructions successfully decoded
system.cpu.fetch2.loadInstructions                  0                       # Number of memory load instructions successfully decoded
system.cpu.fetch2.storeInstructions                 0                       # Number of memory store instructions successfully decoded
system.cpu.fetch2.amoInstructions                   0                       # Number of memory atomic instructions successfully decoded
system.cpu.interrupts.clk_domain.clock          16000                       # Clock period in ticks
system.cpu.itb.rdAccesses                           0                       # TLB accesses on read requests
system.cpu.itb.wrAccesses                       70009                       # TLB accesses on write requests
system.cpu.itb.rdMisses                             0                       # TLB misses on read requests
system.cpu.itb.wrMisses                            36                       # TLB misses on write requests
system.cpu.itb.walker.power_state.pwrStateResidencyTicks::UNDEFINED    530732000                       # Cumulative time (in ticks) in various power states
system.cpu.l1d.demand_hits::.cpu.data           51321                       # number of demand (read+write) hits
system.cpu.l1d.demand_hits::total               51321                       # number of demand (read+write) hits
system.cpu.l1d.overall_hits::.cpu.data          51321                       # number of overall hits
system.cpu.l1d.overall_hits::total              51321                       # number of overall hits
system.cpu.l1d.demand_misses::.cpu.data          2405                       # number of demand (read+write) misses
system.cpu.l1d.demand_misses::total              2405                       # number of demand (read+write) misses
system.cpu.l1d.overall_misses::.cpu.data         2405                       # number of overall misses
system.cpu.l1d.overall_misses::total             2405                       # number of overall misses
system.cpu.l1d.demand_miss_latency::.cpu.data    106584000                       # number of demand (read+write) miss cycles
system.cpu.l1d.demand_miss_latency::total    106584000                       # number of demand (read+write) miss cycles
system.cpu.l1d.overall_miss_latency::.cpu.data    106584000                       # number of overall miss cycles
system.cpu.l1d.overall_miss_latency::total    106584000                       # number of overall miss cycles
system.cpu.l1d.demand_accesses::.cpu.data        53726                       # number of demand (read+write) accesses
system.cpu.l1d.demand_accesses::total           53726                       # number of demand (read+write) accesses
system.cpu.l1d.overall_accesses::.cpu.data        53726                       # number of overall (read+write) accesses
system.cpu.l1d.overall_accesses::total          53726                       # number of overall (read+write) accesses
system.cpu.l1d.demand_miss_rate::.cpu.data     0.044764                       # miss rate for demand accesses
system.cpu.l1d.demand_miss_rate::total       0.044764                       # miss rate for demand accesses
system.cpu.l1d.overall_miss_rate::.cpu.data     0.044764                       # miss rate for overall accesses
system.cpu.l1d.overall_miss_rate::total      0.044764                       # miss rate for overall accesses
system.cpu.l1d.demand_avg_miss_latency::.cpu.data 44317.671518                       # average overall miss latency
system.cpu.l1d.demand_avg_miss_latency::total 44317.671518                       # average overall miss latency
system.cpu.l1d.overall_avg_miss_latency::.cpu.data 44317.671518                       # average overall miss latency
system.cpu.l1d.overall_avg_miss_latency::total 44317.671518                       # average overall miss latency
system.cpu.l1d.blocked_cycles::no_mshrs             0                       # number of cycles access was blocked
system.cpu.l1d.blocked_cycles::no_targets            0                       # number of cycles access was blocked
system.cpu.l1d.blocked::no_mshrs                    0                       # number of cycles access was blocked
system.cpu.l1d.blocked::no_targets                  0                       # number of cycles access was blocked
system.cpu.l1d.avg_blocked_cycles::no_mshrs          nan                       # average number of cycles each access was blocked
system.cpu.l1d.avg_blocked_cycles::no_targets          nan                       # average number of cycles each access was blocked
system.cpu.l1d.writebacks::.writebacks            915                       # number of writebacks
system.cpu.l1d.writebacks::total                  915                       # number of writebacks
system.cpu.l1d.demand_mshr_hits::.cpu.data          103                       # number of demand (read+write) MSHR hits
system.cpu.l1d.demand_mshr_hits::total            103                       # number of demand (read+write) MSHR hits
system.cpu.l1d.overall_mshr_hits::.cpu.data          103                       # number of overall MSHR hits
system.cpu.l1d.overall_mshr_hits::total           103                       # number of overall MSHR hits
system.cpu.l1d.demand_mshr_misses::.cpu.data         2302                       # number of demand (read+write) MSHR misses
system.cpu.l1d.demand_mshr_misses::total         2302                       # number of demand (read+write) MSHR misses
system.cpu.l1d.overall_mshr_misses::.cpu.data         2302                       # number of overall MSHR misses
system.cpu.l1d.overall_mshr_misses::total         2302                       # number of overall MSHR misses
system.cpu.l1d.demand_mshr_miss_latency::.cpu.data     98001000                       # number of demand (read+write) MSHR miss cycles
system.cpu.l1d.demand_mshr_miss_latency::total     98001000                       # number of demand (read+write) MSHR miss cycles
system.cpu.l1d.overall_mshr_miss_latency::.cpu.data     98001000                       # number of overall MSHR miss cycles
system.cpu.l1d.overall_mshr_miss_latency::total     98001000                       # number of overall MSHR miss cycles
system.cpu.l1d.demand_mshr_miss_rate::.cpu.data     0.042847                       # mshr miss rate for demand accesses
system.cpu.l1d.demand_mshr_miss_rate::total     0.042847                       # mshr miss rate for demand accesses
system.cpu.l1d.overall_mshr_miss_rate::.cpu.data     0.042847                       # mshr miss rate for overall accesses
system.cpu.l1d.overall_mshr_miss_rate::total     0.042847                       # mshr miss rate for overall accesses
system.cpu.l1d.demand_avg_mshr_miss_latency::.cpu.data 42572.111208                       # average overall mshr miss latency
system.cpu.l1d.demand_avg_mshr_miss_latency::total 42572.111208                       # average overall mshr miss latency
system.cpu.l1d.overall_avg_mshr_miss_latency::.cpu.data 42572.111208                       # average overall mshr miss latency
system.cpu.l1d.overall_avg_mshr_miss_latency::total 42572.111208                       # average overall mshr miss latency
system.cpu.l1d.replacements                      1790                       # number of replacements
system.cpu.l1d.ReadReq_hits::.cpu.data          33522                       # number of ReadReq hits
system.cpu.l1d.ReadReq_hits::total              33522                       # number of ReadReq hits
system.cpu.l1d.ReadReq_misses::.cpu.data         2193                       # number of ReadReq misses
system.cpu.l1d.ReadReq_misses::total             2193                       # number of ReadReq misses
system.cpu.l1d.ReadReq_miss_latency::.cpu.data     93088000                       # number of ReadReq miss cycles
system.cpu.l1d.ReadReq_miss_latency::total     93088000                       # number of ReadReq miss cycles
system.cpu.l1d.ReadReq_accesses::.cpu.data        35715                       # number of ReadReq accesses(hits+misses)
system.cpu.l1d.ReadReq_accesses::total          35715                       # number of ReadReq accesses(hits+misses)
system.cpu.l1d.ReadReq_miss_rate::.cpu.data     0.061403                       # miss rate for ReadReq accesses
system.cpu.l1d.ReadReq_miss_rate::total      0.061403                       # miss rate for ReadReq accesses
system.cpu.l1d.ReadReq_avg_miss_latency::.cpu.data 42447.788418                       # average ReadReq miss latency
system.cpu.l1d.ReadReq_avg_miss_latency::total 42447.788418                       # average ReadReq miss latency
system.cpu.l1d.ReadReq_mshr_hits::.cpu.data           16                       # number of ReadReq MSHR hits
system.cpu.l1d.ReadReq_mshr_hits::total            16                       # number of ReadReq MSHR hits
system.cpu.l1d.ReadReq_mshr_misses::.cpu.data         2177                       # number of ReadReq MSHR misses
system.cpu.l1d.ReadReq_mshr_misses::total         2177                       # number of ReadReq MSHR misses
system.cpu.l1d.ReadReq_mshr_miss_latency::.cpu.data     89823000                       # number of ReadReq MSHR miss cycles
system.cpu.l1d.ReadReq_mshr_miss_latency::total     89823000                       # number of ReadReq MSHR miss cycles
system.cpu.l1d.ReadReq_mshr_miss_rate::.cpu.data     0.060955                       # mshr miss rate for ReadReq accesses
system.cpu.l1d.ReadReq_mshr_miss_rate::total     0.060955                       # mshr miss rate for ReadReq accesses
system.cpu.l1d.ReadReq_avg_mshr_miss_latency::.cpu.data 41259.990813                       # average ReadReq mshr miss latency
system.cpu.l1d.ReadReq_avg_mshr_miss_latency::total 41259.990813                       # average ReadReq mshr miss latency
system.cpu.l1d.WriteReq_hits::.cpu.data         17799                       # number of WriteReq hits
system.cpu.l1d.WriteReq_hits::total             17799                       # number of WriteReq hits
system.cpu.l1d.WriteReq_misses::.cpu.data          212                       # number of WriteReq misses
system.cpu.l1d.WriteReq_misses::total             212                       # number of WriteReq misses
system.cpu.l1d.WriteReq_miss_latency::.cpu.data     13496000                       # number of WriteReq miss cycles
system.cpu.l1d.WriteReq_miss_latency::total     13496000                       # number of WriteReq miss cycles
system.cpu.l1d.WriteReq_accesses::.cpu.data        18011                       # number of WriteReq accesses(hits+misses)
system.cpu.l1d.WriteReq_accesses::total         18011                       # number of WriteReq accesses(hits+misses)
system.cpu.l1d.WriteReq_miss_rate::.cpu.data     0.011771                       # miss rate for WriteReq accesses
system.cpu.l1d.WriteReq_miss_rate::total     0.011771                       # miss rate for WriteReq accesses
system.cpu.l1d.WriteReq_avg_miss_latency::.cpu.data 63660.377358                       # average WriteReq miss latency
system.cpu.l1d.WriteReq_avg_miss_latency::total 63660.377358                       # average WriteReq miss latency
system.cpu.l1d.WriteReq_mshr_hits::.cpu.data           87                       # number of WriteReq MSHR hits
system.cpu.l1d.WriteReq_mshr_hits::total           87                       # number of WriteReq MSHR hits
system.cpu.l1d.WriteReq_mshr_misses::.cpu.data          125                       # number of WriteReq MSHR misses
system.cpu.l1d.WriteReq_mshr_misses::total          125                       # number of WriteReq MSHR misses
system.cpu.l1d.WriteReq_mshr_miss_latency::.cpu.data      8178000                       # number of WriteReq MSHR miss cycles
system.cpu.l1d.WriteReq_mshr_miss_latency::total      8178000                       # number of WriteReq MSHR miss cycles
system.cpu.l1d.WriteReq_mshr_miss_rate::.cpu.data     0.006940                       # mshr miss rate for WriteReq accesses
system.cpu.l1d.WriteReq_mshr_miss_rate::total     0.006940                       # mshr miss rate for WriteReq accesses
system.cpu.l1d.WriteReq_avg_mshr_miss_latency::.cpu.data        65424                       # average WriteReq mshr miss latency
system.cpu.l1d.WriteReq_avg_mshr_miss_latency::total        65424                       # average WriteReq mshr miss latency
system.cpu.l1d.power_state.pwrStateResidencyTicks::UNDEFINED    530732000                       # Cumulative time (in ticks) in various power states
system.cpu.l1d.prefetcher.pfIssued                  0                       # number of hwpf issued
system.cpu.l1d.prefetcher.pfIdentified              0                       # number of prefetch candidates identified
system.cpu.l1d.prefetcher.pfBufferHit               0                       # number of redundant prefetches already in prefetch queue
system.cpu.l1d.prefetcher.pfInCache                 0                       # number of redundant prefetches already in cache/mshr dropped
system.cpu.l1d.prefetcher.pfRemovedFull             0                       # number of prefetches dropped due to prefetch queue size
system.cpu.l1d.prefetcher.pfSpanPage                0                       # number of prefetches that crossed the page
system.cpu.l1d.prefetcher.power_state.pwrStateResidencyTicks::UNDEFINED    530732000                       # Cumulative time (in ticks) in various power states
system.cpu.l1d.tags.tagsinuse              446.831751                       # Cycle average of tags in use
system.cpu.l1d.tags.total_refs                  41523                       # Total number of references to valid blocks.
system.cpu.l1d.tags.sampled_refs                 1790                       # Sample count of references to valid blocks.
system.cpu.l1d.tags.avg_refs                23.197207                       # Average number of references to valid blocks.
system.cpu.l1d.tags.warmup_cycle               156000                       # Cycle when the warmup percentage was hit.
system.cpu.l1d.tags.occ_blocks::.cpu.data   446.831751                       # Average occupied blocks per requestor
system.cpu.l1d.tags.occ_percent::.cpu.data     0.872718                       # Average percentage of cache occupancy
system.cpu.l1d.tags.occ_percent::total       0.872718                       # Average percentage of cache occupancy
system.cpu.l1d.tags.occ_task_id_blocks::1024          512                       # Occupied blocks per task id
system.cpu.l1d.tags.age_task_id_blocks_1024::0           58                       # Occupied blocks per task id
system.cpu.l1d.tags.age_task_id_blocks_1024::1          424                       # Occupied blocks per task id
system.cpu.l1d.tags.age_task_id_blocks_1024::2           30                       # Occupied blocks per task id
system.cpu.l1d.tags.occ_task_id_percent::1024            1                       # Percentage of cache occupancy per task id
system.cpu.l1d.tags.tag_accesses               432110                       # Number of tag accesses
system.cpu.l1d.tags.data_accesses              432110                       # Number of data accesses
system.cpu.l1d.tags.power_state.pwrStateResidencyTicks::UNDEFINED    530732000                       # Cumulative time (in ticks) in various power states
system.cpu.l1i.demand_hits::.cpu.inst           69443                       # number of demand (read+write) hits
system.cpu.l1i.demand_hits::total               69443                       # number of demand (read+write) hits
system.cpu.l1i.overall_hits::.cpu.inst          69443                       # number of overall hits
system.cpu.l1i.overall_hits::total              69443                       # number of overall hits
system.cpu.l1i.demand_misses::.cpu.inst           566                       # number of demand (read+write) misses
system.cpu.l1i.demand_misses::total               566                       # number of demand (read+write) misses
system.cpu.l1i.overall_misses::.cpu.inst          566                       # number of overall misses
system.cpu.l1i.overall_misses::total              566                       # number of overall misses
system.cpu.l1i.demand_miss_latency::.cpu.inst     38136000                       # number of demand (read+write) miss cycles
system.cpu.l1i.demand_miss_latency::total     38136000                       # number of demand (read+write) miss cycles
system.cpu.l1i.overall_miss_latency::.cpu.inst     38136000                       # number of overall miss cycles
system.cpu.l1i.overall_miss_latency::total     38136000                       # number of overall miss cycles
system.cpu.l1i.demand_accesses::.cpu.inst        70009                       # number of demand (read+write) accesses
system.cpu.l1i.demand_accesses::total           70009                       # number of demand (read+write) accesses
system.cpu.l1i.overall_accesses::.cpu.inst        70009                       # number of overall (read+write) accesses
system.cpu.l1i.overall_accesses::total          70009                       # number of overall (read+write) accesses
system.cpu.l1i.demand_miss_rate::.cpu.inst     0.008085                       # miss rate for demand accesses
system.cpu.l1i.demand_miss_rate::total       0.008085                       # miss rate for demand accesses
system.cpu.l1i.overall_miss_rate::.cpu.inst     0.008085                       # miss rate for overall accesses
system.cpu.l1i.overall_miss_rate::total      0.008085                       # miss rate for overall accesses
system.cpu.l1i.demand_avg_miss_latency::.cpu.inst 67378.091873                       # average overall miss latency
system.cpu.l1i.demand_avg_miss_latency::total 67378.091873                       # average overall miss latency
system.cpu.l1i.overall_avg_miss_latency::.cpu.inst 67378.091873                       # average overall miss latency
system.cpu.l1i.overall_avg_miss_latency::total 67378.091873                       # average overall miss latency
system.cpu.l1i.blocked_cycles::no_mshrs             0                       # number of cycles access was blocked
system.cpu.l1i.blocked_cycles::no_targets            0                       # number of cycles access was blocked
system.cpu.l1i.blocked::no_mshrs                    0                       # number of cycles access was blocked
system.cpu.l1i.blocked::no_targets                  0                       # number of cycles access was blocked
system.cpu.l1i.avg_blocked_cycles::no_mshrs          nan                       # average number of cycles each access was blocked
system.cpu.l1i.avg_blocked_cycles::no_targets          nan                       # average number of cycles each access was blocked
system.cpu.l1i.demand_mshr_misses::.cpu.inst          566                       # number of demand (read+write) MSHR misses
system.cpu.l1i.demand_mshr_misses::total          566                       # number of demand (read+write) MSHR misses
system.cpu.l1i.overall_mshr_misses::.cpu.inst          566                       # number of overall MSHR misses
system.cpu.l1i.overall_mshr_misses::total          566                       # number of overall MSHR misses
system.cpu.l1i.demand_mshr_miss_latency::.cpu.inst     37571000                       # number of demand (read+write) MSHR miss cycles
system.cpu.l1i.demand_mshr_miss_latency::total     37571000                       # number of demand (read+write) MSHR miss cycles
system.cpu.l1i.overall_mshr_miss_latency::.cpu.inst     37571000                       # number of overall MSHR miss cycles
system.cpu.l1i.overall_mshr_miss_latency::total     37571000                       # number of overall MSHR miss cycles
system.cpu.l1i.demand_mshr_miss_rate::.cpu.inst     0.008085                       # mshr miss rate for demand accesses
system.cpu.l1i.demand_mshr_miss_rate::total     0.008085                       # mshr miss rate for demand accesses
system.cpu.l1i.overall_mshr_miss_rate::.cpu.inst     0.008085                       # mshr miss rate for overall accesses
system.cpu.l1i.overall_mshr_miss_rate::total     0.008085                       # mshr miss rate for overall accesses
system.cpu.l1i.demand_avg_mshr_miss_latency::.cpu.inst 66379.858657                       # average overall mshr miss latency
system.cpu.l1i.demand_avg_mshr_miss_latency::total 66379.858657                       # average overall mshr miss latency
system.cpu.l1i.overall_avg_mshr_miss_latency::.cpu.inst 66379.858657                       # average overall mshr miss latency
system.cpu.l1i.overall_avg_mshr_miss_latency::total 66379.858657                       # average overall mshr miss latency
system.cpu.l1i.replacements                        77                       # number of replacements
system.cpu.l1i.ReadReq_hits::.cpu.inst          69443                       # number of ReadReq hits
system.cpu.l1i.ReadReq_hits::total              69443                       # number of ReadReq hits
system.cpu.l1i.ReadReq_misses::.cpu.inst          566                       # number of ReadReq misses
system.cpu.l1i.ReadReq_misses::total              566                       # number of ReadReq misses
system.cpu.l1i.ReadReq_miss_latency::.cpu.inst     38136000                       # number of ReadReq miss cycles
system.cpu.l1i.ReadReq_miss_latency::total     38136000                       # number of ReadReq miss cycles
system.cpu.l1i.ReadReq_accesses::.cpu.inst        70009                       # number of ReadReq accesses(hits+misses)
system.cpu.l1i.ReadReq_accesses::total          70009                       # number of ReadReq accesses(hits+misses)
system.cpu.l1i.ReadReq_miss_rate::.cpu.inst     0.008085                       # miss rate for ReadReq accesses
system.cpu.l1i.ReadReq_miss_rate::total      0.008085                       # miss rate for ReadReq accesses
system.cpu.l1i.ReadReq_avg_miss_latency::.cpu.inst 67378.091873                       # average ReadReq miss latency
system.cpu.l1i.ReadReq_avg_miss_latency::total 67378.091873                       # average ReadReq miss latency
system.cpu.l1i.ReadReq_mshr_misses::.cpu.inst          566                       # number of ReadReq MSHR misses
system.cpu.l1i.ReadReq_mshr_misses::total          566                       # number of ReadReq MSHR misses
system.cpu.l1i.ReadReq_mshr_miss_latency::.cpu.inst     37571000                       # number of ReadReq MSHR miss cycles
system.cpu.l1i.ReadReq_mshr_miss_latency::total     37571000                       # number of ReadReq MSHR miss cycles
system.cpu.l1i.ReadReq_mshr_miss_rate::.cpu.inst     0.008085                       # mshr miss rate for ReadReq accesses
system.cpu.l1i.ReadReq_mshr_miss_rate::total     0.008085                       # mshr miss rate for ReadReq accesses
system.cpu.l1i.ReadReq_avg_mshr_miss_latency::.cpu.inst 66379.858657                       # average ReadReq mshr miss latency
system.cpu.l1i.ReadReq_avg_mshr_miss_latency::total 66379.858657                       # average ReadReq mshr miss latency
system.cpu.l1i.power_state.pwrStateResidencyTicks::UNDEFINED    530732000                       # Cumulative time (in ticks) in various power states
system.cpu.l1i.prefetcher.pfIssued                  0                       # number of hwpf issued
system.cpu.l1i.prefetcher.pfIdentified              0                       # number of prefetch candidates identified
system.cpu.l1i.prefetcher.pfBufferHit               0                       # number of redundant prefetches already in prefetch queue
system.cpu.l1i.prefetcher.pfInCache                 0                       # number of redundant prefetches already in cache/mshr dropped
system.cpu.l1i.prefetcher.pfRemovedFull             0                       # number of prefetches dropped due to prefetch queue size
system.cpu.l1i.prefetcher.pfSpanPage                0                       # number of prefetches that crossed the page
system.cpu.l1i.prefetcher.power_state.pwrStateResidencyTicks::UNDEFINED    530732000                       # Cumulative time (in ticks) in various power states
system.cpu.l1i.tags.tagsinuse              436.118502                       # Cycle average of tags in use
system.cpu.l1i.tags.total_refs                    364                       # Total number of references to valid blocks.
system.cpu.l1i.tags.sampled_refs                   77                       # Sample count of references to valid blocks.
system.cpu.l1i.tags.avg_refs                 4.727273                       # Average number of references to valid blocks.
system.cpu.l1i.tags.warmup_cycle                76000                       # Cycle when the warmup percentage was hit.
system.cpu.l1i.tags.occ_blocks::.cpu.inst   436.118502                       # Average occupied blocks per requestor
system.cpu.l1i.tags.occ_percent::.cpu.inst     0.851794                       # Average percentage of cache occupancy
system.cpu.l1i.tags.occ_percent::total       0.851794                       # Average percentage of cache occupancy
system.cpu.l1i.tags.occ_task_id_blocks::1024          488                       # Occupied blocks per task id
system.cpu.l1i.tags.age_task_id_blocks_1024::0           49                       # Occupied blocks per task id
system.cpu.l1i.tags.age_task_id_blocks_1024::2          439                       # Occupied blocks per task id
system.cpu.l1i.tags.occ_task_id_percent::1024     0.953125                       # Percentage of cache occupancy per task id
system.cpu.l1i.tags.tag_accesses               560637                       # Number of tag accesses
system.cpu.l1i.tags.data_accesses              560637                       # Number of data accesses
system.cpu.l1i.tags.power_state.pwrStateResidencyTicks::UNDEFINED    530732000                       # Cumulative time (in ticks) in various power states
system.cpu.power_state.pwrStateResidencyTicks::ON    530732000                       # Cumulative time (in ticks) in various power states
system.cpu.thread_0.numInsts                   123029                       # Number of Instructions committed
system.cpu.thread_0.numOps                     245572                       # Number of Ops committed
system.cpu.thread_0.numMemRefs                      0                       # Number of Memory References
system.l1_to_l2.trans_dist::ReadResp             2742                       # Transaction distribution
system.l1_to_l2.trans_dist::WritebackDirty          915                       # Transaction distribution
system.l1_to_l2.trans_dist::CleanEvict            952                       # Transaction distribution
system.l1_to_l2.trans_dist::ReadExReq             125                       # Transaction distribution
system.l1_to_l2.trans_dist::ReadExResp            125                       # Transaction distribution
system.l1_to_l2.trans_dist::ReadSharedReq         2743                       # Transaction distribution
system.l1_to_l2.pkt_count_system.cpu.l1d.mem_side_port::system.l2cache.cpu_side_port         6394                       # Packet count per connected requestor and responder (bytes)
system.l1_to_l2.pkt_count_system.cpu.l1i.mem_side_port::system.l2cache.cpu_side_port         1208                       # Packet count per connected requestor and responder (bytes)
system.l1_to_l2.pkt_count::total                 7602                       # Packet count per connected requestor and responder (bytes)
system.l1_to_l2.pkt_size_system.cpu.l1d.mem_side_port::system.l2cache.cpu_side_port       205888                       # Cumulative packet size per connected requestor and responder (bytes)
system.l1_to_l2.pkt_size_system.cpu.l1i.mem_side_port::system.l2cache.cpu_side_port        36160                       # Cumulative packet size per connected requestor and responder (bytes)
system.l1_to_l2.pkt_size::total                242048                       # Cumulative packet size per connected requestor and responder (bytes)
system.l1_to_l2.snoops                              0                       # Total snoops (count)
system.l1_to_l2.snoopTraffic                        0                       # Total snoop traffic (bytes)
system.l1_to_l2.snoop_fanout::samples            2868                       # Request fanout histogram
system.l1_to_l2.snoop_fanout::mean                  0                       # Request fanout histogram
system.l1_to_l2.snoop_fanout::stdev                 0                       # Request fanout histogram
system.l1_to_l2.snoop_fanout::underflows            0      0.00%      0.00% # Request fanout histogram
system.l1_to_l2.snoop_fanout::0                  2868    100.00%    100.00% # Request fanout histogram
system.l1_to_l2.snoop_fanout::1                     0      0.00%    100.00% # Request fanout histogram
system.l1_to_l2.snoop_fanout::2                     0      0.00%    100.00% # Request fanout histogram
system.l1_to_l2.snoop_fanout::overflows             0      0.00%    100.00% # Request fanout histogram
system.l1_to_l2.snoop_fanout::min_value             0                       # Request fanout histogram
system.l1_to_l2.snoop_fanout::max_value             0                       # Request fanout histogram
system.l1_to_l2.snoop_fanout::total              2868                       # Request fanout histogram
system.l1_to_l2.power_state.pwrStateResidencyTicks::UNDEFINED    530732000                       # Cumulative time (in ticks) in various power states
system.l1_to_l2.reqLayer0.occupancy           5650000                       # Layer occupancy (ticks)
system.l1_to_l2.reqLayer0.utilization             1.1                       # Layer utilization (%)
system.l1_to_l2.respLayer0.occupancy          4604000                       # Layer occupancy (ticks)
system.l1_to_l2.respLayer0.utilization            0.9                       # Layer utilization (%)
system.l1_to_l2.respLayer1.occupancy          1130000                       # Layer occupancy (ticks)
system.l1_to_l2.respLayer1.utilization            0.2                       # Layer utilization (%)
system.l2cache.demand_hits::.cpu.inst               7                       # number of demand (read+write) hits
system.l2cache.demand_hits::.cpu.data            1044                       # number of demand (read+write) hits
system.l2cache.demand_hits::total                1051                       # number of demand (read+write) hits
system.l2cache.overall_hits::.cpu.inst              7                       # number of overall hits
system.l2cache.overall_hits::.cpu.data           1044                       # number of overall hits
system.l2cache.overall_hits::total               1051                       # number of overall hits
system.l2cache.demand_misses::.cpu.inst           559                       # number of demand (read+write) misses
system.l2cache.demand_misses::.cpu.data          1258                       # number of demand (read+write) misses
system.l2cache.demand_misses::total              1817                       # number of demand (read+write) misses
system.l2cache.overall_misses::.cpu.inst          559                       # number of overall misses
system.l2cache.overall_misses::.cpu.data         1258                       # number of overall misses
system.l2cache.overall_misses::total             1817                       # number of overall misses
system.l2cache.demand_miss_latency::.cpu.inst     36364000                       # number of demand (read+write) miss cycles
system.l2cache.demand_miss_latency::.cpu.data     81908000                       # number of demand (read+write) miss cycles
system.l2cache.demand_miss_latency::total    118272000                       # number of demand (read+write) miss cycles
system.l2cache.overall_miss_latency::.cpu.inst     36364000                       # number of overall miss cycles
system.l2cache.overall_miss_latency::.cpu.data     81908000                       # number of overall miss cycles
system.l2cache.overall_miss_latency::total    118272000                       # number of overall miss cycles
system.l2cache.demand_accesses::.cpu.inst          566                       # number of demand (read+write) accesses
system.l2cache.demand_accesses::.cpu.data         2302                       # number of demand (read+write) accesses
system.l2cache.demand_accesses::total            2868                       # number of demand (read+write) accesses
system.l2cache.overall_accesses::.cpu.inst          566                       # number of overall (read+write) accesses
system.l2cache.overall_accesses::.cpu.data         2302                       # number of overall (read+write) accesses
system.l2cache.overall_accesses::total           2868                       # number of overall (read+write) accesses
system.l2cache.demand_miss_rate::.cpu.inst     0.987633                       # miss rate for demand accesses
system.l2cache.demand_miss_rate::.cpu.data     0.546481                       # miss rate for demand accesses
system.l2cache.demand_miss_rate::total       0.633543                       # miss rate for demand accesses
system.l2cache.overall_miss_rate::.cpu.inst     0.987633                       # miss rate for overall accesses
system.l2cache.overall_miss_rate::.cpu.data     0.546481                       # miss rate for overall accesses
system.l2cache.overall_miss_rate::total      0.633543                       # miss rate for overall accesses
system.l2cache.demand_avg_miss_latency::.cpu.inst 65051.878354                       # average overall miss latency
system.l2cache.demand_avg_miss_latency::.cpu.data 65109.697933                       # average overall miss latency
system.l2cache.demand_avg_miss_latency::total 65091.909741                       # average overall miss latency
system.l2cache.overall_avg_miss_latency::.cpu.inst 65051.878354                       # average overall miss latency
system.l2cache.overall_avg_miss_latency::.cpu.data 65109.697933                       # average overall miss latency
system.l2cache.overall_avg_miss_latency::total 65091.909741                       # average overall miss latency
system.l2cache.blocked_cycles::no_mshrs             0                       # number of cycles access was blocked
system.l2cache.blocked_cycles::no_targets            0                       # number of cycles access was blocked
system.l2cache.blocked::no_mshrs                    0                       # number of cycles access was blocked
system.l2cache.blocked::no_targets                  0                       # number of cycles access was blocked
system.l2cache.avg_blocked_cycles::no_mshrs          nan                       # average number of cycles each access was blocked
system.l2cache.avg_blocked_cycles::no_targets          nan                       # average number of cycles each access was blocked
system.l2cache.demand_mshr_misses::.cpu.inst          559                       # number of demand (read+write) MSHR misses
system.l2cache.demand_mshr_misses::.cpu.data         1258                       # number of demand (read+write) MSHR misses
system.l2cache.demand_mshr_misses::total         1817                       # number of demand (read+write) MSHR misses
system.l2cache.overall_mshr_misses::.cpu.inst          559                       # number of overall MSHR misses
system.l2cache.overall_mshr_misses::.cpu.data         1258                       # number of overall MSHR misses
system.l2cache.overall_mshr_misses::total         1817                       # number of overall MSHR misses
system.l2cache.demand_mshr_miss_latency::.cpu.inst     35806000                       # number of demand (read+write) MSHR miss cycles
system.l2cache.demand_mshr_miss_latency::.cpu.data     80650000                       # number of demand (read+write) MSHR miss cycles
system.l2cache.demand_mshr_miss_latency::total    116456000                       # number of demand (read+write) MSHR miss cycles
system.l2cache.overall_mshr_miss_latency::.cpu.inst     35806000                       # number of overall MSHR miss cycles
system.l2cache.overall_mshr_miss_latency::.cpu.data     80650000                       # number of overall MSHR miss cycles
system.l2cache.overall_mshr_miss_latency::total    116456000                       # number of overall MSHR miss cycles
system.l2cache.demand_mshr_miss_rate::.cpu.inst     0.987633                       # mshr miss rate for demand accesses
system.l2cache.demand_mshr_miss_rate::.cpu.data     0.546481                       # mshr miss rate for demand accesses
system.l2cache.demand_mshr_miss_rate::total     0.633543                       # mshr miss rate for demand accesses
system.l2cache.overall_mshr_miss_rate::.cpu.inst     0.987633                       # mshr miss rate for overall accesses
system.l2cache.overall_mshr_miss_rate::.cpu.data     0.546481                       # mshr miss rate for overall accesses
system.l2cache.overall_mshr_miss_rate::total     0.633543                       # mshr miss rate for overall accesses
system.l2cache.demand_avg_mshr_miss_latency::.cpu.inst 64053.667263                       # average overall mshr miss latency
system.l2cache.demand_avg_mshr_miss_latency::.cpu.data 64109.697933                       # average overall mshr miss latency
system.l2cache.demand_avg_mshr_miss_latency::total 64092.460099                       # average overall mshr miss latency
system.l2cache.overall_avg_mshr_miss_latency::.cpu.inst 64053.667263                       # average overall mshr miss latency
system.l2cache.overall_avg_mshr_miss_latency::.cpu.data 64109.697933                       # average overall mshr miss latency
system.l2cache.overall_avg_mshr_miss_latency::total 64092.460099                       # average overall mshr miss latency
system.l2cache.replacements                         0                       # number of replacements
system.l2cache.WritebackDirty_hits::.writebacks          915                       # number of WritebackDirty hits
system.l2cache.WritebackDirty_hits::total          915                       # number of WritebackDirty hits
system.l2cache.WritebackDirty_accesses::.writebacks          915                       # number of WritebackDirty accesses(hits+misses)
system.l2cache.WritebackDirty_accesses::total          915                       # number of WritebackDirty accesses(hits+misses)
system.l2cache.ReadExReq_hits::.cpu.data            5                       # number of ReadExReq hits
system.l2cache.ReadExReq_hits::total                5                       # number of ReadExReq hits
system.l2cache.ReadExReq_misses::.cpu.data          120                       # number of ReadExReq misses
system.l2cache.ReadExReq_misses::total            120                       # number of ReadExReq misses
system.l2cache.ReadExReq_miss_latency::.cpu.data      7870000                       # number of ReadExReq miss cycles
system.l2cache.ReadExReq_miss_latency::total      7870000                       # number of ReadExReq miss cycles
system.l2cache.ReadExReq_accesses::.cpu.data          125                       # number of ReadExReq accesses(hits+misses)
system.l2cache.ReadExReq_accesses::total          125                       # number of ReadExReq accesses(hits+misses)
system.l2cache.ReadExReq_miss_rate::.cpu.data     0.960000                       # miss rate for ReadExReq accesses
system.l2cache.ReadExReq_miss_rate::total     0.960000                       # miss rate for ReadExReq accesses
system.l2cache.ReadExReq_avg_miss_latency::.cpu.data 65583.333333                       # average ReadExReq miss latency
system.l2cache.ReadExReq_avg_miss_latency::total 65583.333333                       # average ReadExReq miss latency
system.l2cache.ReadExReq_mshr_misses::.cpu.data          120                       # number of ReadExReq MSHR misses
system.l2cache.ReadExReq_mshr_misses::total          120                       # number of ReadExReq MSHR misses
system.l2cache.ReadExReq_mshr_miss_latency::.cpu.data      7750000                       # number of ReadExReq MSHR miss cycles
system.l2cache.ReadExReq_mshr_miss_latency::total      7750000                       # number of ReadExReq MSHR miss cycles
system.l2cache.ReadExReq_mshr_miss_rate::.cpu.data     0.960000                       # mshr miss rate for ReadExReq accesses
system.l2cache.ReadExReq_mshr_miss_rate::total     0.960000                       # mshr miss rate for ReadExReq accesses
system.l2cache.ReadExReq_avg_mshr_miss_latency::.cpu.data 64583.333333                       # average ReadExReq mshr miss latency
system.l2cache.ReadExReq_avg_mshr_miss_latency::total 64583.333333                       # average ReadExReq mshr miss latency
system.l2cache.ReadSharedReq_hits::.cpu.inst            7                       # number of ReadSharedReq hits
system.l2cache.ReadSharedReq_hits::.cpu.data         1039                       # number of ReadSharedReq hits
system.l2cache.ReadSharedReq_hits::total         1046                       # number of ReadSharedReq hits
system.l2cache.ReadSharedReq_misses::.cpu.inst          559                       # number of ReadSharedReq misses
system.l2cache.ReadSharedReq_misses::.cpu.data         1138                       # number of ReadSharedReq misses
system.l2cache.ReadSharedReq_misses::total         1697                       # number of ReadSharedReq misses
system.l2cache.ReadSharedReq_miss_latency::.cpu.inst     36364000                       # number of ReadSharedReq miss cycles
system.l2cache.ReadSharedReq_miss_latency::.cpu.data     74038000                       # number of ReadSharedReq miss cycles
system.l2cache.ReadSharedReq_miss_latency::total    110402000                       # number of ReadSharedReq miss cycles
system.l2cache.ReadSharedReq_accesses::.cpu.inst          566                       # number of ReadSharedReq accesses(hits+misses)
system.l2cache.ReadSharedReq_accesses::.cpu.data         2177                       # number of ReadSharedReq accesses(hits+misses)
system.l2cache.ReadSharedReq_accesses::total         2743                       # number of ReadSharedReq accesses(hits+misses)
system.l2cache.ReadSharedReq_miss_rate::.cpu.inst     0.987633                       # miss rate for ReadSharedReq accesses
system.l2cache.ReadSharedReq_miss_rate::.cpu.data     0.522738                       # miss rate for ReadSharedReq accesses
system.l2cache.ReadSharedReq_miss_rate::total     0.618666                       # miss rate for ReadSharedReq accesses
system.l2cache.ReadSharedReq_avg_miss_latency::.cpu.inst 65051.878354                       # average ReadSharedReq miss latency
system.l2cache.ReadSharedReq_avg_miss_latency::.cpu.data 65059.753954                       # average ReadSharedReq miss latency
system.l2cache.ReadSharedReq_avg_miss_latency::total 65057.159694                       # average ReadSharedReq miss latency
system.l2cache.ReadSharedReq_mshr_misses::.cpu.inst          559                       # number of ReadSharedReq MSHR misses
system.l2cache.ReadSharedReq_mshr_misses::.cpu.data         1138                       # number of ReadSharedReq MSHR misses
system.l2cache.ReadSharedReq_mshr_misses::total         1697                       # number of ReadSharedReq MSHR misses
system.l2cache.ReadSharedReq_mshr_miss_latency::.cpu.inst     35806000                       # number of ReadSharedReq MSHR miss cycles
system.l2cache.ReadSharedReq_mshr_miss_latency::.cpu.data     72900000                       # number of ReadSharedReq MSHR miss cycles
system.l2cache.ReadSharedReq_mshr_miss_latency::total    108706000                       # number of ReadSharedReq MSHR miss cycles
system.l2cache.ReadSharedReq_mshr_miss_rate::.cpu.inst     0.987633                       # mshr miss rate for ReadSharedReq accesses
system.l2cache.ReadSharedReq_mshr_miss_rate::.cpu.data     0.522738                       # mshr miss rate for ReadSharedReq accesses
system.l2cache.ReadSharedReq_mshr_miss_rate::total     0.618666                       # mshr miss rate for ReadSharedReq accesses
system.l2cache.ReadSharedReq_avg_mshr_miss_latency::.cpu.inst 64053.667263                       # average ReadSharedReq mshr miss latency
system.l2cache.ReadSharedReq_avg_mshr_miss_latency::.cpu.data 64059.753954                       # average ReadSharedReq mshr miss latency
system.l2cache.ReadSharedReq_avg_mshr_miss_latency::total 64057.748969                       # average ReadSharedReq mshr miss latency
system.l2cache.power_state.pwrStateResidencyTicks::UNDEFINED    530732000                       # Cumulative time (in ticks) in various power states
system.l2cache.tags.tagsinuse             1349.440688                       # Cycle average of tags in use
system.l2cache.tags.total_refs                      0                       # Total number of references to valid blocks.
system.l2cache.tags.sampled_refs                    0                       # Sample count of references to valid blocks.
system.l2cache.tags.avg_refs                      nan                       # Average number of references to valid blocks.
system.l2cache.tags.warmup_cycle                74000                       # Cycle when the warmup percentage was hit.
system.l2cache.tags.occ_blocks::.cpu.inst   483.069206                       # Average occupied blocks per requestor
system.l2cache.tags.occ_blocks::.cpu.data   866.371482                       # Average occupied blocks per requestor
system.l2cache.tags.occ_percent::.cpu.inst     0.029484                       # Average percentage of cache occupancy
system.l2cache.tags.occ_percent::.cpu.data     0.052879                       # Average percentage of cache occupancy
system.l2cache.tags.occ_percent::total       0.082363                       # Average percentage of cache occupancy
system.l2cache.tags.occ_task_id_blocks::1024         1816                       # Occupied blocks per task id
system.l2cache.tags.age_task_id_blocks_1024::0           63                       # Occupied blocks per task id
system.l2cache.tags.age_task_id_blocks_1024::2         1753                       # Occupied blocks per task id
system.l2cache.tags.occ_task_id_percent::1024     0.110840                       # Percentage of cache occupancy per task id
system.l2cache.tags.tag_accesses                77576                       # Number of tag accesses
system.l2cache.tags.data_accesses               77576                       # Number of data accesses
system.l2cache.tags.power_state.pwrStateResidencyTicks::UNDEFINED    530732000                       # Cumulative time (in ticks) in various power states
system.mem_ctrl.avgPriority_.cpu.inst::samples       558.00                       # Average QoS priority value for accepted requests
system.mem_ctrl.avgPriority_.cpu.data::samples      1258.00                       # Average QoS priority value for accepted requests
system.mem_ctrl.priorityMinLatency       0.000000016842                       # per QoS priority minimum request to response latency (s)
system.mem_ctrl.priorityMaxLatency       0.000000559232                       # per QoS priority maximum request to response latency (s)
system.mem_ctrl.numReadWriteTurnArounds             0                       # Number of turnarounds from READ to WRITE
system.mem_ctrl.numWriteReadTurnArounds             0                       # Number of turnarounds from WRITE to READ
system.mem_ctrl.numStayReadState                 3765                       # Number of times bus staying in READ state
system.mem_ctrl.numStayWriteState                   0                       # Number of times bus staying in WRITE state
system.mem_ctrl.readReqs                         1816                       # Number of read requests accepted
system.mem_ctrl.writeReqs                           0                       # Number of write requests accepted
system.mem_ctrl.readBursts                       1816                       # Number of controller read bursts, including those serviced by the write queue
system.mem_ctrl.writeBursts                         0                       # Number of controller write bursts, including those merged in the write queue
system.mem_ctrl.servicedByWrQ                       0                       # Number of controller read bursts serviced by the write queue
system.mem_ctrl.mergedWrBursts                      0                       # Number of controller write bursts merged with an existing one
system.mem_ctrl.neitherReadNorWriteReqs             0                       # Number of requests that are neither read nor write
system.mem_ctrl.avgRdQLen                        1.01                       # Average read queue length when enqueuing
system.mem_ctrl.avgWrQLen                        0.00                       # Average write queue length when enqueuing
system.mem_ctrl.numRdRetry                          0                       # Number of times read queue was full causing retry
system.mem_ctrl.numWrRetry                          0                       # Number of times write queue was full causing retry
system.mem_ctrl.readPktSize::0                      0                       # Read request sizes (log2)
system.mem_ctrl.readPktSize::1                      0                       # Read request sizes (log2)
system.mem_ctrl.readPktSize::2                      0                       # Read request sizes (log2)
system.mem_ctrl.readPktSize::3                      0                       # Read request sizes (log2)
system.mem_ctrl.readPktSize::4                      0                       # Read request sizes (log2)
system.mem_ctrl.readPktSize::5                      0                       # Read request sizes (log2)
system.mem_ctrl.readPktSize::6                   1816                       # Read request sizes (log2)
system.mem_ctrl.writePktSize::0                     0                       # Write request sizes (log2)
system.mem_ctrl.writePktSize::1                     0                       # Write request sizes (log2)
system.mem_ctrl.writePktSize::2                     0                       # Write request sizes (log2)
system.mem_ctrl.writePktSize::3                     0                       # Write request sizes (log2)
system.mem_ctrl.writePktSize::4                     0                       # Write request sizes (log2)
system.mem_ctrl.writePktSize::5                     0                       # Write request sizes (log2)
system.mem_ctrl.writePktSize::6                     0                       # Write request sizes (log2)
system.mem_ctrl.rdQLenPdf::0                     1732                       # What read queue length does an incoming req see
system.mem_ctrl.rdQLenPdf::1                       80                       # What read queue length does an incoming req see
system.mem_ctrl.rdQLenPdf::2                        4                       # What read queue length does an incoming req see
system.mem_ctrl.rdQLenPdf::3                        0                       # What read queue length does an incoming req see
system.mem_ctrl.rdQLenPdf::4                        0                       # What read queue length does an incoming req see
system.mem_ctrl.rdQLenPdf::5                        0                       # What read queue length does an incoming req see
system.mem_ctrl.rdQLenPdf::6                        0                       # What read queue length does an incoming req see
system.mem_ctrl.rdQLenPdf::7                        0                       # What read queue length does an incoming req see
system.mem_ctrl.rdQLenPdf::8                        0                       # What read queue length does an incoming req see
system.mem_ctrl.rdQLenPdf::9                        0                       # What read queue length does an incoming req see
system.mem_ctrl.rdQLenPdf::10                       0                       # What read queue length does an incoming req see
system.mem_ctrl.rdQLenPdf::11                       0                       # What read queue length does an incoming req see
system.mem_ctrl.rdQLenPdf::12                       0                       # What read queue length does an incoming req see
system.mem_ctrl.rdQLenPdf::13                       0                       # What read queue length does an incoming req see
system.mem_ctrl.rdQLenPdf::14                       0                       # What read queue length does an incoming req see
system.mem_ctrl.rdQLenPdf::15                       0                       # What read queue length does an incoming req see
system.mem_ctrl.rdQLenPdf::16                       0                       # What read queue length does an incoming req see
system.mem_ctrl.rdQLenPdf::17                       0                       # What read queue length does an incoming req see
system.mem_ctrl.rdQLenPdf::18                       0                       # What read queue length does an incoming req see
system.mem_ctrl.rdQLenPdf::19                       0                       # What read queue length does an incoming req see
system.mem_ctrl.rdQLenPdf::20                       0                       # What read queue length does an incoming req see
system.mem_ctrl.rdQLenPdf::21                       0                       # What read queue length does an incoming req see
system.mem_ctrl.rdQLenPdf::22                       0                       # What read queue length does an incoming req see
system.mem_ctrl.rdQLenPdf::23                       0                       # What read queue length does an incoming req see
system.mem_ctrl.rdQLenPdf::24                       0                       # What read queue length does an incoming req see
system.mem_ctrl.rdQLenPdf::25                       0                       # What read queue length does an incoming req see
system.mem_ctrl.rdQLenPdf::26                       0                       # What read queue length does an incoming req see
system.mem_ctrl.rdQLenPdf::27                       0                       # What read queue length does an incoming req see
system.mem_ctrl.rdQLenPdf::28                       0                       # What read queue length does an incoming req see
system.mem_ctrl.rdQLenPdf::29                       0                       # What read queue length does an incoming req see
system.mem_ctrl.rdQLenPdf::30                       0                       # What read queue length does an incoming req see
system.mem_ctrl.rdQLenPdf::31                       0                       # What read queue length does an incoming req see
system.mem_ctrl.wrQLenPdf::0                        0                       # What write queue length does an incoming req see
system.mem_ctrl.wrQLenPdf::1                        0                       # What write queue length does an incoming req see
system.mem_ctrl.wrQLenPdf::2                        0                       # What write queue length does an incoming req see
system.mem_ctrl.wrQLenPdf::3                        0                       # What write queue length does an incoming req see
system.mem_ctrl.wrQLenPdf::4                        0                       # What write queue length does an incoming req see
system.mem_ctrl.wrQLenPdf::5                        0                       # What write queue length does an incoming req see
system.mem_ctrl.wrQLenPdf::6                        0                       # What write queue length does an incoming req see
system.mem_ctrl.wrQLenPdf::7                        0                       # What write queue length does an incoming req see
system.mem_ctrl.wrQLenPdf::8                        0                       # What write queue length does an incoming req see
system.mem_ctrl.wrQLenPdf::9                        0                       # What write queue length does an incoming req see
system.mem_ctrl.wrQLenPdf::10                       0                       # What write queue length does an incoming req see
system.mem_ctrl.wrQLenPdf::11                       0                       # What write queue length does an incoming req see
system.mem_ctrl.wrQLenPdf::12                       0                       # What write queue length does an incoming req see
system.mem_ctrl.wrQLenPdf::13                       0                       # What write queue length does an incoming req see
system.mem_ctrl.wrQLenPdf::14                       0                       # What write queue length does an incoming req see
system.mem_ctrl.wrQLenPdf::15                       0                       # What write queue length does an incoming req see
system.mem_ctrl.wrQLenPdf::16                       0                       # What write queue length does an incoming req see
system.mem_ctrl.wrQLenPdf::17                       0                       # What write queue length does an incoming req see
system.mem_ctrl.wrQLenPdf::18                       0                       # What write queue length does an incoming req see
system.mem_ctrl.wrQLenPdf::19                       0                       # What write queue length does an incoming req see
system.mem_ctrl.wrQLenPdf::20                       0                       # What write queue length does an incoming req see
system.mem_ctrl.wrQLenPdf::21                       0                       # What write queue length does an incoming req see
system.mem_ctrl.wrQLenPdf::22                       0                       # What write queue length does an incoming req see
system.mem_ctrl.wrQLenPdf::23                       0                       # What write queue length does an incoming req see
system.mem_ctrl.wrQLenPdf::24                       0                       # What write queue length does an incoming req see
system.mem_ctrl.wrQLenPdf::25                       0                       # What write queue length does an incoming req see
system.mem_ctrl.wrQLenPdf::26                       0                       # What write queue length does an incoming req see
system.mem_ctrl.wrQLenPdf::27                       0                       # What write queue length does an incoming req see
system.mem_ctrl.wrQLenPdf::28                       0                       # What write queue length does an incoming req see
system.mem_ctrl.wrQLenPdf::29                       0                       # What write queue length does an incoming req see
system.mem_ctrl.wrQLenPdf::30                       0                       # What write queue length does an incoming req see
system.mem_ctrl.wrQLenPdf::31                       0                       # What write queue length does an incoming req see
system.mem_ctrl.wrQLenPdf::32                       0                       # What write queue length does an incoming req see
system.mem_ctrl.wrQLenPdf::33                       0                       # What write queue length does an incoming req see
system.mem_ctrl.wrQLenPdf::34                       0                       # What write queue length does an incoming req see
system.mem_ctrl.wrQLenPdf::35                       0                       # What write queue length does an incoming req see
system.mem_ctrl.wrQLenPdf::36                       0                       # What write queue length does an incoming req see
system.mem_ctrl.wrQLenPdf::37                       0                       # What write queue length does an incoming req see
system.mem_ctrl.wrQLenPdf::38                       0                       # What write queue length does an incoming req see
system.mem_ctrl.wrQLenPdf::39                       0                       # What write queue length does an incoming req see
system.mem_ctrl.wrQLenPdf::40                       0                       # What write queue length does an incoming req see
system.mem_ctrl.wrQLenPdf::41                       0                       # What write queue length does an incoming req see
system.mem_ctrl.wrQLenPdf::42                       0                       # What write queue length does an incoming req see
system.mem_ctrl.wrQLenPdf::43                       0                       # What write queue length does an incoming req see
system.mem_ctrl.wrQLenPdf::44                       0                       # What write queue length does an incoming req see
system.mem_ctrl.wrQLenPdf::45                       0                       # What write queue length does an incoming req see
system.mem_ctrl.wrQLenPdf::46                       0                       # What write queue length does an incoming req see
system.mem_ctrl.wrQLenPdf::47                       0                       # What write queue length does an incoming req see
system.mem_ctrl.wrQLenPdf::48                       0                       # What write queue length does an incoming req see
system.mem_ctrl.wrQLenPdf::49                       0                       # What write queue length does an incoming req see
system.mem_ctrl.wrQLenPdf::50                       0                       # What write queue length does an incoming req see
system.mem_ctrl.wrQLenPdf::51                       0                       # What write queue length does an incoming req see
system.mem_ctrl.wrQLenPdf::52                       0                       # What write queue length does an incoming req see
system.mem_ctrl.wrQLenPdf::53                       0                       # What write queue length does an incoming req see
system.mem_ctrl.wrQLenPdf::54                       0                       # What write queue length does an incoming req see
system.mem_ctrl.wrQLenPdf::55                       0                       # What write queue length does an incoming req see
system.mem_ctrl.wrQLenPdf::56                       0                       # What write queue length does an incoming req see
[...]
system.mem_ctrl.wrQLenPdf::60                       0                       # What write queue length does an incoming req see
system.mem_ctrl.wrQLenPdf::61                       0                       # What write queue length does an incoming req see
system.mem_ctrl.wrQLenPdf::62                       0                       # What write queue length does an incoming req see
system.mem_ctrl.wrQLenPdf::63                       0                       # What write queue length does an incoming req see
system.mem_ctrl.bytesReadWrQ                        0                       # Total number of bytes read from write queue
system.mem_ctrl.bytesReadSys                   116224                       # Total read bytes from the system interface side
system.mem_ctrl.bytesWrittenSys                     0                       # Total written bytes from the system interface side
system.mem_ctrl.avgRdBWSys                     218.99                       # Average system read bandwidth in MiByte/s
system.mem_ctrl.avgWrBWSys                       0.00                       # Average system write bandwidth in MiByte/s
system.mem_ctrl.totGap                      530659000                       # Total gap between requests
system.mem_ctrl.avgGap                      292213.11                       # Average gap between requests
system.mem_ctrl.requestorReadBytes::.cpu.inst        35712                       # Per-requestor bytes read from memory
system.mem_ctrl.requestorReadBytes::.cpu.data        80512                       # Per-requestor bytes read from memory
system.mem_ctrl.requestorReadRate::.cpu.inst 67288198.186655417085                       # Per-requestor bytes read from memory rate (Bytes/sec)
system.mem_ctrl.requestorReadRate::.cpu.data 151699916.341957896948                       # Per-requestor bytes read from memory rate (Bytes/sec)
system.mem_ctrl.requestorReadAccesses::.cpu.inst          558                       # Per-requestor read serviced memory accesses
system.mem_ctrl.requestorReadAccesses::.cpu.data         1258                       # Per-requestor read serviced memory accesses
system.mem_ctrl.requestorReadTotalLat::.cpu.inst     12803036                       # Per-requestor read total memory access latency
system.mem_ctrl.requestorReadTotalLat::.cpu.data     28832932                       # Per-requestor read total memory access latency
system.mem_ctrl.requestorReadAvgLat::.cpu.inst     22944.51                       # Per-requestor read average memory access latency
system.mem_ctrl.requestorReadAvgLat::.cpu.data     22919.66                       # Per-requestor read average memory access latency
system.mem_ctrl.dram.bytes_read::.cpu.inst        35712                       # Number of bytes read from this memory
system.mem_ctrl.dram.bytes_read::.cpu.data        80512                       # Number of bytes read from this memory
system.mem_ctrl.dram.bytes_read::total         116224                       # Number of bytes read from this memory
system.mem_ctrl.dram.bytes_inst_read::.cpu.inst        35712                       # Number of instructions bytes read from this memory
system.mem_ctrl.dram.bytes_inst_read::total        35712                       # Number of instructions bytes read from this memory
system.mem_ctrl.dram.num_reads::.cpu.inst          558                       # Number of read requests responded to by this memory
system.mem_ctrl.dram.num_reads::.cpu.data         1258                       # Number of read requests responded to by this memory
system.mem_ctrl.dram.num_reads::total            1816                       # Number of read requests responded to by this memory
system.mem_ctrl.dram.bw_read::.cpu.inst      67288198                       # Total read bandwidth from this memory (bytes/s)
system.mem_ctrl.dram.bw_read::.cpu.data     151699916                       # Total read bandwidth from this memory (bytes/s)
system.mem_ctrl.dram.bw_read::total         218988115                       # Total read bandwidth from this memory (bytes/s)
system.mem_ctrl.dram.bw_inst_read::.cpu.inst     67288198                       # Instruction read bandwidth from this memory (bytes/s)
system.mem_ctrl.dram.bw_inst_read::total     67288198                       # Instruction read bandwidth from this memory (bytes/s)
system.mem_ctrl.dram.bw_total::.cpu.inst     67288198                       # Total bandwidth to/from this memory (bytes/s)
system.mem_ctrl.dram.bw_total::.cpu.data    151699916                       # Total bandwidth to/from this memory (bytes/s)
system.mem_ctrl.dram.bw_total::total        218988115                       # Total bandwidth to/from this memory (bytes/s)
system.mem_ctrl.dram.readBursts                  1816                       # Number of DRAM read bursts
system.mem_ctrl.dram.writeBursts                    0                       # Number of DRAM write bursts
system.mem_ctrl.dram.perBankRdBursts::0           102                       # Per bank write bursts
system.mem_ctrl.dram.perBankRdBursts::1           183                       # Per bank write bursts
system.mem_ctrl.dram.perBankRdBursts::2           144                       # Per bank write bursts
system.mem_ctrl.dram.perBankRdBursts::3           138                       # Per bank write bursts
system.mem_ctrl.dram.perBankRdBursts::4           139                       # Per bank write bursts
system.mem_ctrl.dram.perBankRdBursts::5           145                       # Per bank write bursts
system.mem_ctrl.dram.perBankRdBursts::6           201                       # Per bank write bursts
system.mem_ctrl.dram.perBankRdBursts::7           166                       # Per bank write bursts
system.mem_ctrl.dram.perBankRdBursts::8           164                       # Per bank write bursts
system.mem_ctrl.dram.perBankRdBursts::9            49                       # Per bank write bursts
system.mem_ctrl.dram.perBankRdBursts::10           29                       # Per bank write bursts
system.mem_ctrl.dram.perBankRdBursts::11           90                       # Per bank write bursts
system.mem_ctrl.dram.perBankRdBursts::12           67                       # Per bank write bursts
system.mem_ctrl.dram.perBankRdBursts::13            8                       # Per bank write bursts
system.mem_ctrl.dram.perBankRdBursts::14           76                       # Per bank write bursts
system.mem_ctrl.dram.perBankRdBursts::15          115                       # Per bank write bursts
system.mem_ctrl.dram.perBankWrBursts::0             0                       # Per bank write bursts
system.mem_ctrl.dram.perBankWrBursts::1             0                       # Per bank write bursts
system.mem_ctrl.dram.perBankWrBursts::2             0                       # Per bank write bursts
system.mem_ctrl.dram.perBankWrBursts::3             0                       # Per bank write bursts
system.mem_ctrl.dram.perBankWrBursts::4             0                       # Per bank write bursts
system.mem_ctrl.dram.perBankWrBursts::5             0                       # Per bank write bursts
system.mem_ctrl.dram.perBankWrBursts::6             0                       # Per bank write bursts
system.mem_ctrl.dram.perBankWrBursts::7             0                       # Per bank write bursts
system.mem_ctrl.dram.perBankWrBursts::8             0                       # Per bank write bursts
system.mem_ctrl.dram.perBankWrBursts::9             0                       # Per bank write bursts
system.mem_ctrl.dram.perBankWrBursts::10            0                       # Per bank write bursts
system.mem_ctrl.dram.perBankWrBursts::11            0                       # Per bank write bursts
system.mem_ctrl.dram.perBankWrBursts::12            0                       # Per bank write bursts
system.mem_ctrl.dram.perBankWrBursts::13            0                       # Per bank write bursts
system.mem_ctrl.dram.perBankWrBursts::14            0                       # Per bank write bursts
system.mem_ctrl.dram.perBankWrBursts::15            0                       # Per bank write bursts
system.mem_ctrl.dram.totQLat                 11050896                       # Total ticks spent queuing
system.mem_ctrl.dram.totBusLat                6813632                       # Total ticks spent in databus transfers
system.mem_ctrl.dram.totMemAccLat            41635968                       # Total ticks spent from burst creation until serviced by the DRAM
system.mem_ctrl.dram.avgQLat                  6085.30                       # Average queueing delay per DRAM burst
system.mem_ctrl.dram.avgBusLat                3752.00                       # Average bus latency per DRAM burst
system.mem_ctrl.dram.avgMemAccLat            22927.30                       # Average memory access latency per DRAM burst
system.mem_ctrl.dram.readRowHits                 1565                       # Number of row buffer hits during reads
system.mem_ctrl.dram.writeRowHits                   0                       # Number of row buffer hits during writes
system.mem_ctrl.dram.readRowHitRate             86.18                       # Row buffer hit rate for reads
system.mem_ctrl.dram.writeRowHitRate              nan                       # Row buffer hit rate for writes
system.mem_ctrl.dram.bytesPerActivate::samples          248                       # Bytes accessed per row activation
system.mem_ctrl.dram.bytesPerActivate::mean   465.290323                       # Bytes accessed per row activation
system.mem_ctrl.dram.bytesPerActivate::gmean   286.024199                       # Bytes accessed per row activation
system.mem_ctrl.dram.bytesPerActivate::stdev   388.484458                       # Bytes accessed per row activation
system.mem_ctrl.dram.bytesPerActivate::0-127           56     22.58%     22.58% # Bytes accessed per row activation
system.mem_ctrl.dram.bytesPerActivate::128-255           52     20.97%     43.55% # Bytes accessed per row activation
system.mem_ctrl.dram.bytesPerActivate::256-383           25     10.08%     53.63% # Bytes accessed per row activation
system.mem_ctrl.dram.bytesPerActivate::384-511           16      6.45%     60.08% # Bytes accessed per row activation
system.mem_ctrl.dram.bytesPerActivate::512-639            8      3.23%     63.31% # Bytes accessed per row activation
system.mem_ctrl.dram.bytesPerActivate::640-767            5      2.02%     65.32% # Bytes accessed per row activation
system.mem_ctrl.dram.bytesPerActivate::768-895           11      4.44%     69.76% # Bytes accessed per row activation
system.mem_ctrl.dram.bytesPerActivate::896-1023           42     16.94%     86.69% # Bytes accessed per row activation
system.mem_ctrl.dram.bytesPerActivate::1024-1151           33     13.31%    100.00% # Bytes accessed per row activation
system.mem_ctrl.dram.bytesPerActivate::total          248                       # Bytes accessed per row activation
system.mem_ctrl.dram.bytesRead                 116224                       # Total number of bytes read from DRAM
system.mem_ctrl.dram.bytesWritten                   0                       # Total number of bytes written to DRAM
system.mem_ctrl.dram.avgRdBW               218.988115                       # Average DRAM read bandwidth in MiBytes/s
system.mem_ctrl.dram.avgWrBW                        0                       # Average DRAM write bandwidth in MiBytes/s
system.mem_ctrl.dram.peakBW                  17057.00                       # Theoretical peak bandwidth in MiByte/s
system.mem_ctrl.dram.busUtil                     1.28                       # Data bus utilization in percentage
system.mem_ctrl.dram.busUtilRead                 1.28                       # Data bus utilization in percentage for reads
system.mem_ctrl.dram.busUtilWrite                0.00                       # Data bus utilization in percentage for writes
system.mem_ctrl.dram.pageHitRate                86.18                       # Row buffer hit rate, read and write combined
system.mem_ctrl.dram.power_state.pwrStateResidencyTicks::UNDEFINED    530732000                       # Cumulative time (in ticks) in various power states
system.mem_ctrl.dram.rank0.actEnergy     1548735.552000                       # Energy for activate commands per rank (pJ)
system.mem_ctrl.dram.rank0.preEnergy     759239.712000                       # Energy for precharge commands per rank (pJ)
system.mem_ctrl.dram.rank0.readEnergy    8061367.104000                       # Energy for read commands per rank (pJ)
system.mem_ctrl.dram.rank0.writeEnergy              0                       # Energy for write commands per rank (pJ)
system.mem_ctrl.dram.rank0.refreshEnergy 43833385.344000                       # Energy for refresh commands per rank (pJ)
system.mem_ctrl.dram.rank0.actBackEnergy 170546634.720000                       # Energy for active background per rank (pJ)
system.mem_ctrl.dram.rank0.preBackEnergy 92231056.176000                       # Energy for precharge background per rank (pJ)
system.mem_ctrl.dram.rank0.actPowerDownEnergy            0                       # Energy for active power-down per rank (pJ)
system.mem_ctrl.dram.rank0.prePowerDownEnergy            0                       # Energy for precharge power-down per rank (pJ)
system.mem_ctrl.dram.rank0.selfRefreshEnergy            0                       # Energy for self refresh per rank (pJ)
system.mem_ctrl.dram.rank0.totalEnergy   316980418.608000                       # Total energy per rank (pJ)
system.mem_ctrl.dram.rank0.averagePower    597.251378                       # Core power per rank (mW)
system.mem_ctrl.dram.rank0.totalIdleTime            0                       # Total Idle time Per DRAM Rank
system.mem_ctrl.dram.rank0.pwrStateTime::IDLE    206298470                       # Time in different power states
system.mem_ctrl.dram.rank0.pwrStateTime::REF     17680000                       # Time in different power states
system.mem_ctrl.dram.rank0.pwrStateTime::SREF            0                       # Time in different power states
system.mem_ctrl.dram.rank0.pwrStateTime::PRE_PDN            0                       # Time in different power states
system.mem_ctrl.dram.rank0.pwrStateTime::ACT    306753530                       # Time in different power states
system.mem_ctrl.dram.rank0.pwrStateTime::ACT_PDN            0                       # Time in different power states
system.mem_ctrl.dram.rank1.actEnergy     1095704.064000                       # Energy for activate commands per rank (pJ)
system.mem_ctrl.dram.rank1.preEnergy     530427.744000                       # Energy for precharge commands per rank (pJ)
system.mem_ctrl.dram.rank1.readEnergy    3957879.744000                       # Energy for read commands per rank (pJ)
system.mem_ctrl.dram.rank1.writeEnergy              0                       # Energy for write commands per rank (pJ)
system.mem_ctrl.dram.rank1.refreshEnergy 43833385.344000                       # Energy for refresh commands per rank (pJ)
system.mem_ctrl.dram.rank1.actBackEnergy 82233139.296000                       # Energy for active background per rank (pJ)
system.mem_ctrl.dram.rank1.preBackEnergy 166494677.328000                       # Energy for precharge background per rank (pJ)
system.mem_ctrl.dram.rank1.actPowerDownEnergy            0                       # Energy for active power-down per rank (pJ)
system.mem_ctrl.dram.rank1.prePowerDownEnergy            0                       # Energy for precharge power-down per rank (pJ)
system.mem_ctrl.dram.rank1.selfRefreshEnergy            0                       # Energy for self refresh per rank (pJ)
system.mem_ctrl.dram.rank1.totalEnergy   298145213.520000                       # Total energy per rank (pJ)
system.mem_ctrl.dram.rank1.averagePower    561.762271                       # Core power per rank (mW)
system.mem_ctrl.dram.rank1.totalIdleTime            0                       # Total Idle time Per DRAM Rank
system.mem_ctrl.dram.rank1.pwrStateTime::IDLE    373860680                       # Time in different power states
system.mem_ctrl.dram.rank1.pwrStateTime::REF     17680000                       # Time in different power states
system.mem_ctrl.dram.rank1.pwrStateTime::SREF            0                       # Time in different power states
system.mem_ctrl.dram.rank1.pwrStateTime::PRE_PDN            0                       # Time in different power states
system.mem_ctrl.dram.rank1.pwrStateTime::ACT    139191320                       # Time in different power states
system.mem_ctrl.dram.rank1.pwrStateTime::ACT_PDN            0                       # Time in different power states
system.mem_ctrl.power_state.pwrStateResidencyTicks::UNDEFINED    530732000                       # Cumulative time (in ticks) in various power states
system.membus.trans_dist::ReadResp               1696                       # Transaction distribution
system.membus.trans_dist::ReadExReq               120                       # Transaction distribution
system.membus.trans_dist::ReadExResp              120                       # Transaction distribution
system.membus.trans_dist::ReadSharedReq          1696                       # Transaction distribution
system.membus.pkt_count_system.l2cache.mem_side_port::system.mem_ctrl.port         3632                       # Packet count per connected requestor and responder (bytes)
system.membus.pkt_count_system.l2cache.mem_side_port::total         3632                       # Packet count per connected requestor and responder (bytes)
system.membus.pkt_count::total                   3632                       # Packet count per connected requestor and responder (bytes)
system.membus.pkt_size_system.l2cache.mem_side_port::system.mem_ctrl.port       116224                       # Cumulative packet size per connected requestor and responder (bytes)
system.membus.pkt_size_system.l2cache.mem_side_port::total       116224                       # Cumulative packet size per connected requestor and responder (bytes)
system.membus.pkt_size::total                  116224                       # Cumulative packet size per connected requestor and responder (bytes)
system.membus.snoops                                0                       # Total snoops (count)
system.membus.snoopTraffic                          0                       # Total snoop traffic (bytes)
system.membus.snoop_fanout::samples              1816                       # Request fanout histogram
system.membus.snoop_fanout::mean                    0                       # Request fanout histogram
system.membus.snoop_fanout::stdev                   0                       # Request fanout histogram
system.membus.snoop_fanout::underflows              0      0.00%      0.00% # Request fanout histogram
system.membus.snoop_fanout::0                    1816    100.00%    100.00% # Request fanout histogram
system.membus.snoop_fanout::1                       0      0.00%    100.00% # Request fanout histogram
system.membus.snoop_fanout::overflows               0      0.00%    100.00% # Request fanout histogram
system.membus.snoop_fanout::min_value               0                       # Request fanout histogram
system.membus.snoop_fanout::max_value               0                       # Request fanout histogram
system.membus.snoop_fanout::total                1816                       # Request fanout histogram
system.membus.power_state.pwrStateResidencyTicks::UNDEFINED    530732000                       # Cumulative time (in ticks) in various power states
system.membus.reqLayer0.occupancy             1816000                       # Layer occupancy (ticks)
system.membus.reqLayer0.utilization               0.3                       # Layer utilization (%)
system.membus.respLayer0.occupancy            3996032                       # Layer occupancy (ticks)
system.membus.respLayer0.utilization              0.8                       # Layer utilization (%)

---------- End Simulation Statistics   ----------
