
---------- Begin Simulation Statistics ----------
final_tick                                  530732000                       # Number of ticks from beginning of simulation (restored from checkpoints and never reset)
host_inst_rate                                 126480                       # Simulator instruction rate (inst/s)
host_mem_usage                                2224220                       # Number of bytes of host memory used
host_op_rate                                   252341                       # Simulator op (including micro ops) rate (op/s)
host_seconds                                     0.97                       # Real time elapsed on the host
host_tick_rate                              545112336                       # Simulator tick rate (ticks/s)
sim_freq                                 1000000000000                       # Frequency of simulated ticks
sim_insts                                      123022                       # Number of instructions simulated
sim_ops                                        245558                       # Number of ops (including micro ops) simulated
sim_seconds                                  0.000531                       # Number of seconds simulated
sim_ticks                                   530732000                       # Number of ticks simulated
system.cpu.committedInsts                      123022                       # Number of instructions committed
system.cpu.committedOps                        245558                       # Number of ops (including micro ops) committed
system.cpu.cpi                               4.314123                       # CPI: cycles per instruction
system.cpu.discardedOps                         53547                       # Number of ops (including micro ops) which were discarded before commit
system.cpu.idleCycles                          103481                       # Total number of cycles that the object has spent stopped
system.cpu.ipc                               0.231797                       # IPC: instructions per cycle
system.cpu.numCycles                           530732                       # number of cpu cycles simulated
system.cpu.numFetchSuspends                         0                       # Number of times Execute suspended instruction fetching
system.cpu.numWorkItemsCompleted                    0                       # number of work items this cpu completed
system.cpu.numWorkItemsStarted                      0                       # number of work items this cpu started
system.cpu.op_class_0::No_OpClass                 287      0.12%      0.12% # Class of committed instruction
system.cpu.op_class_0::IntAlu                  126897     51.68%     51.79% # Class of committed instruction
system.cpu.op_class_0::IntMult                      5      0.00%     51.80% # Class of committed instruction
system.cpu.op_class_0::IntDiv                      21      0.01%     51.80% # Class of committed instruction
system.cpu.op_class_0::FloatAdd                 32905     13.40%     65.20% # Class of committed instruction
system.cpu.op_class_0::FloatCmp                     0      0.00%     65.20% # Class of committed instruction
system.cpu.op_class_0::FloatCvt                     0      0.00%     65.20% # Class of committed instruction
system.cpu.op_class_0::FloatMult                    0      0.00%     65.20% # Class of committed instruction
system.cpu.op_class_0::FloatMultAcc                 0      0.00%     65.20% # Class of committed instruction
system.cpu.op_class_0::FloatDiv                     0      0.00%     65.20% # Class of committed instruction
system.cpu.op_class_0::FloatMisc                    0      0.00%     65.20% # Class of committed instruction
system.cpu.op_class_0::FloatSqrt                    0      0.00%     65.20% # Class of committed instruction
system.cpu.op_class_0::SimdAdd                      0      0.00%     65.20% # Class of committed instruction
system.cpu.op_class_0::SimdAddAcc                   0      0.00%     65.20% # Class of committed instruction
system.cpu.op_class_0::SimdAlu                     96      0.04%     65.24% # Class of committed instruction
system.cpu.op_class_0::SimdCmp                      0      0.00%     65.24% # Class of committed instruction
system.cpu.op_class_0::SimdCvt                     46      0.02%     65.26% # Class of committed instruction
system.cpu.op_class_0::SimdMisc                   217      0.09%     65.35% # Class of committed instruction
system.cpu.op_class_0::SimdMult                     0      0.00%     65.35% # Class of committed instruction
system.cpu.op_class_0::SimdMultAcc                  0      0.00%     65.35% # Class of committed instruction
system.cpu.op_class_0::SimdShift                    0      0.00%     65.35% # Class of committed instruction
system.cpu.op_class_0::SimdShiftAcc                 0      0.00%     65.35% # Class of committed instruction
system.cpu.op_class_0::SimdDiv                      0      0.00%     65.35% # Class of committed instruction
system.cpu.op_class_0::SimdSqrt                     0      0.00%     65.35% # Class of committed instruction
system.cpu.op_class_0::SimdFloatAdd             16386      6.67%     72.02% # Class of committed instruction
system.cpu.op_class_0::SimdFloatAlu                 0      0.00%     72.02% # Class of committed instruction
system.cpu.op_class_0::SimdFloatCmp                 0      0.00%     72.02% # Class of committed instruction
system.cpu.op_class_0::SimdFloatCvt                 2      0.00%     72.02% # Class of committed instruction
system.cpu.op_class_0::SimdFloatDiv                 0      0.00%     72.02% # Class of committed instruction
system.cpu.op_class_0::SimdFloatMisc                0      0.00%     72.02% # Class of committed instruction
system.cpu.op_class_0::SimdFloatMult            16384      6.67%     78.70% # Class of committed instruction
system.cpu.op_class_0::SimdFloatMultAcc             0      0.00%     78.70% # Class of committed instruction
system.cpu.op_class_0::SimdFloatSqrt                0      0.00%     78.70% # Class of committed instruction
system.cpu.op_class_0::SimdReduceAdd                0      0.00%     78.70% # Class of committed instruction
system.cpu.op_class_0::SimdReduceAlu                0      0.00%     78.70% # Class of committed instruction
system.cpu.op_class_0::SimdReduceCmp                0      0.00%     78.70% # Class of committed instruction
system.cpu.op_class_0::SimdFloatReduceAdd            0      0.00%     78.70% # Class of committed instruction
system.cpu.op_class_0::SimdFloatReduceCmp            0      0.00%     78.70% # Class of committed instruction
system.cpu.op_class_0::SimdAes                      0      0.00%     78.70% # Class of committed instruction
system.cpu.op_class_0::SimdAesMix                   0      0.00%     78.70% # Class of committed instruction
system.cpu.op_class_0::SimdSha1Hash                 0      0.00%     78.70% # Class of committed instruction
system.cpu.op_class_0::SimdSha1Hash2                0      0.00%     78.70% # Class of committed instruction
system.cpu.op_class_0::SimdSha256Hash               0      0.00%     78.70% # Class of committed instruction
system.cpu.op_class_0::SimdSha256Hash2              0      0.00%     78.70% # Class of committed instruction
system.cpu.op_class_0::SimdShaSigma2                0      0.00%     78.70% # Class of committed instruction
system.cpu.op_class_0::SimdShaSigma3                0      0.00%     78.70% # Class of committed instruction
system.cpu.op_class_0::SimdPredAlu                  0      0.00%     78.70% # Class of committed instruction
system.cpu.op_class_0::MemRead                   1483      0.60%     79.30% # Class of committed instruction
system.cpu.op_class_0::MemWrite                  1160      0.47%     79.77% # Class of committed instruction
system.cpu.op_class_0::FloatMemRead             32825     13.37%     93.14% # Class of committed instruction
system.cpu.op_class_0::FloatMemWrite            16844      6.86%    100.00% # Class of committed instruction
system.cpu.op_class_0::IprAccess                    0      0.00%    100.00% # Class of committed instruction
system.cpu.op_class_0::InstPrefetch                 0      0.00%    100.00% # Class of committed instruction
system.cpu.op_class_0::total                   245558                       # Class of committed instruction
system.cpu.tickCycles                          427251                       # Number of cycles that the object actually ticked
system.cpu.workload.numSyscalls                    10                       # Number of system calls
system.l1_to_l2.snoop_filter.hit_multi_requests            0                       # Number of requests hitting in the snoop filter with multiple (>1) holders of the requested data.
system.l1_to_l2.snoop_filter.hit_multi_snoops            0                       # Number of snoops hitting in the snoop filter with multiple (>1) holders of the requested data.
system.l1_to_l2.snoop_filter.hit_single_requests         1865                       # Number of requests hitting in the snoop filter with a single holder of the requested data.
system.l1_to_l2.snoop_filter.hit_single_snoops            0                       # Number of snoops hitting in the snoop filter with a single holder of the requested data.
system.l1_to_l2.snoop_filter.tot_requests         4731                       # Total number of requests made to the snoop filter.
system.l1_to_l2.snoop_filter.tot_snoops             0                       # Total number of snoops made to the snoop filter.
system.membus.snoop_filter.hit_multi_requests            0                       # Number of requests hitting in the snoop filter with multiple (>1) holders of the requested data.
system.membus.snoop_filter.hit_multi_snoops            0                       # Number of snoops hitting in the snoop filter with multiple (>1) holders of the requested data.
system.membus.snoop_filter.hit_single_requests            0                       # Number of requests hitting in the snoop filter with a single holder of the requested data.
system.membus.snoop_filter.hit_single_snoops            0                       # Number of snoops hitting in the snoop filter with a single holder of the requested data.
system.membus.snoop_filter.tot_requests          1814                       # Total number of requests made to the snoop filter.
system.membus.snoop_filter.tot_snoops               0                       # Total number of snoops made to the snoop filter.
system.clk_domain.clock                          1000                       # Clock period in ticks
system.clk_domain.voltage_domain.voltage            1                       # Voltage in Volts
system.cpu.branchPred.lookups                       0                       # Number of BP lookups
system.cpu.branchPred.condPredicted                 0                       # Number of conditional branches predicted
system.cpu.branchPred.condIncorrect                 0                       # Number of conditional branches incorrect
system.cpu.branchPred.BTBLookups                    0                       # Number of BTB lookups
system.cpu.branchPred.BTBHits                       0                       # Number of BTB hits
system.cpu.branchPred.BTBHitPct                   nan                       # BTB Hit Percentage
system.cpu.branchPred.RASUsed                       0                       # Number of times the RAS was used to get a target.
system.cpu.branchPred.RASIncorrect                  0                       # Number of incorrect RAS predictions.
system.cpu.branchPred.indirectLookups               0                       # Number of indirect predictor lookups.
system.cpu.branchPred.indirectHits                  0                       # Number of indirect target hits.
system.cpu.branchPred.indirectMisses                0                       # Number of indirect misses.
system.cpu.branchPred.indirectMispredicted            0                       # Number of mispredicted indirect branches.
system.cpu.branchPred.loop_predictor.correct            0                       # Number of times the loop predictor is the provider and the prediction is correct
system.cpu.branchPred.loop_predictor.wrong            0                       # Number of times the loop predictor is the provider and the prediction is wrong
system.cpu.branchPred.tage.longestMatchProviderCorrect            0                       # Number of times TAGE Longest Match is the provider and the prediction is correct
system.cpu.branchPred.tage.altMatchProviderCorrect            0                       # Number of times TAGE Alt Match is the provider and the prediction is correct
system.cpu.branchPred.tage.bimodalAltMatchProviderCorrect            0                       # Number of times TAGE Alt Match is the bimodal and it is the provider and the prediction is correct
system.cpu.branchPred.tage.bimodalProviderCorrect            0                       # Number of times there are no hits on the TAGE tables and the bimodal prediction is correct
system.cpu.branchPred.tage.longestMatchProviderWrong            0                       # Number of times TAGE Longest Match is the provider and the prediction is wrong
system.cpu.branchPred.tage.altMatchProviderWrong            0                       # Number of times TAGE Alt Match is the provider and the prediction is wrong
system.cpu.branchPred.tage.bimodalAltMatchProviderWrong            0                       # Number of times TAGE Alt Match is the bimodal and it is the provider and the prediction is wrong
system.cpu.branchPred.tage.bimodalProviderWrong            0                       # Number of times there are no hits on the TAGE tables and the bimodal prediction is wrong
system.cpu.branchPred.tage.altMatchProviderWouldHaveHit            0                       # Number of times TAGE Longest Match is the provider, the prediction is wrong and Alt Match prediction was correct
system.cpu.branchPred.tage.longestMatchProviderWouldHaveHit            0                       # Number of times TAGE Alt Match is the provider, the prediction is wrong and Longest Match prediction was correct
system.cpu.branchPred.tage.longestMatchProvider::0            0                       # TAGE provider for longest match
system.cpu.branchPred.tage.longestMatchProvider::1            0                       # TAGE provider for longest match
system.cpu.branchPred.tage.longestMatchProvider::2            0                       # TAGE provider for longest match
system.cpu.branchPred.tage.longestMatchProvider::3            0                       # TAGE provider for longest match
system.cpu.branchPred.tage.longestMatchProvider::4            0                       # TAGE provider for longest match
system.cpu.branchPred.tage.longestMatchProvider::5            0                       # TAGE provider for longest match
system.cpu.branchPred.tage.longestMatchProvider::6            0                       # TAGE provider for longest match
system.cpu.branchPred.tage.longestMatchProvider::7            0                       # TAGE provider for longest match
system.cpu.branchPred.tage.longestMatchProvider::8            0                       # TAGE provider for longest match
system.cpu.branchPred.tage.longestMatchProvider::9            0                       # TAGE provider for longest match
system.cpu.branchPred.tage.longestMatchProvider::10            0                       # TAGE provider for longest match
system.cpu.branchPred.tage.longestMatchProvider::11            0                       # TAGE provider for longest match
system.cpu.branchPred.tage.longestMatchProvider::12            0                       # TAGE provider for longest match
system.cpu.branchPred.tage.altMatchProvider::0            0                       # TAGE provider for alt match
system.cpu.branchPred.tage.altMatchProvider::1            0                       # TAGE provider for alt match
system.cpu.branchPred.tage.altMatchProvider::2            0                       # TAGE provider for alt match
system.cpu.branchPred.tage.altMatchProvider::3            0                       # TAGE provider for alt match
system.cpu.branchPred.tage.altMatchProvider::4            0                       # TAGE provider for alt match
system.cpu.branchPred.tage.altMatchProvider::5            0                       # TAGE provider for alt match
system.cpu.branchPred.tage.altMatchProvider::6            0                       # TAGE provider for alt match
system.cpu.branchPred.tage.altMatchProvider::7            0                       # TAGE provider for alt match
system.cpu.branchPred.tage.altMatchProvider::8            0                       # TAGE provider for alt match
system.cpu.branchPred.tage.altMatchProvider::9            0                       # TAGE provider for alt match
system.cpu.branchPred.tage.altMatchProvider::10            0                       # TAGE provider for alt match
system.cpu.branchPred.tage.altMatchProvider::11            0                       # TAGE provider for alt match
system.cpu.branchPred.tage.altMatchProvider::12            0                       # TAGE provider for alt match
system.cpu.dtb.rdAccesses                       35878                       # TLB accesses on read requests
system.cpu.dtb.wrAccesses                       18098                       # TLB accesses on write requests
system.cpu.dtb.rdMisses                           121                       # TLB misses on read requests
system.cpu.dtb.wrMisses                            30                       # TLB misses on write requests
system.cpu.dtb.walker.power_state.pwrStateResidencyTicks::UNDEFINED    530732000                       # Cumulative time (in ticks) in various power states
system.cpu.fetch2.intInstructions               16452                       # Number of integer instructions successfully decoded
system.cpu.fetch2.fpInstructions                    0                       # Number of floating point instructions successfully decoded
system.cpu.fetch2.vecInstructions                   0                       # Number of SIMD instructions successfully decoded
system.cpu.fetch2.loadInstructions                  0                       # Number of memory load instructions successfully decoded
system.cpu.fetch2.storeInstructions                 0                       # Number of memory store instructions successfully decoded
system.cpu.fetch2.amoInstructions                   0                       # Number of memory atomic instructions successfully decoded
system.cpu.interrupts.clk_domain.clock          16000                       # Clock period in ticks
system.cpu.itb.rdAccesses                           0                       # TLB accesses on read requests
system.cpu.itb.wrAccesses                       70003                       # TLB accesses on write requests
system.cpu.itb.rdMisses                             0                       # TLB misses on read requests
system.cpu.itb.wrMisses                            36                       # TLB misses on write requests
system.cpu.itb.walker.power_state.pwrStateResidencyTicks::UNDEFINED    530732000                       # Cumulative time (in ticks) in various power states
system.cpu.l1d.demand_hits::.cpu.data           51315                       # number of demand (read+write) hits
system.cpu.l1d.demand_hits::total               51315                       # number of demand (read+write) hits
system.cpu.l1d.overall_hits::.cpu.data          51315                       # number of overall hits
system.cpu.l1d.overall_hits::total              51315                       # number of overall hits
system.cpu.l1d.demand_misses::.cpu.data          2402                       # number of demand (read+write) misses
system.cpu.l1d.demand_misses::total              2402                       # number of demand (read+write) misses
system.cpu.l1d.overall_misses::.cpu.data         2402                       # number of overall misses
system.cpu.l1d.overall_misses::total             2402                       # number of overall misses
system.cpu.l1d.demand_miss_latency::.cpu.data    105612000                       # number of demand (read+write) miss cycles
system.cpu.l1d.demand_miss_latency::total    105612000                       # number of demand (read+write) miss cycles
system.cpu.l1d.overall_miss_latency::.cpu.data    105612000                       # number of overall miss cycles
system.cpu.l1d.overall_miss_latency::total    105612000                       # number of overall miss cycles
system.cpu.l1d.demand_accesses::.cpu.data        53717                       # number of demand (read+write) accesses
system.cpu.l1d.demand_accesses::total           53717                       # number of demand (read+write) accesses
system.cpu.l1d.overall_accesses::.cpu.data        53717                       # number of overall (read+write) accesses
system.cpu.l1d.overall_accesses::total          53717                       # number of overall (read+write) accesses
system.cpu.l1d.demand_miss_rate::.cpu.data     0.044716                       # miss rate for demand accesses
system.cpu.l1d.demand_miss_rate::total       0.044716                       # miss rate for demand accesses
system.cpu.l1d.overall_miss_rate::.cpu.data     0.044716                       # miss rate for overall accesses
system.cpu.l1d.overall_miss_rate::total      0.044716                       # miss rate for overall accesses
system.cpu.l1d.demand_avg_miss_latency::.cpu.data 43968.359700                       # average overall miss latency
system.cpu.l1d.demand_avg_miss_latency::total 43968.359700                       # average overall miss latency
system.cpu.l1d.overall_avg_miss_latency::.cpu.data 43968.359700                       # average overall miss latency
system.cpu.l1d.overall_avg_miss_latency::total 43968.359700                       # average overall miss latency
system.cpu.l1d.blocked_cycles::no_mshrs             0                       # number of cycles access was blocked
system.cpu.l1d.blocked_cycles::no_targets            0                       # number of cycles access was blocked
system.cpu.l1d.blocked::no_mshrs                    0                       # number of cycles access was blocked
system.cpu.l1d.blocked::no_targets                  0                       # number of cycles access was blocked
system.cpu.l1d.avg_blocked_cycles::no_mshrs          nan                       # average number of cycles each access was blocked
system.cpu.l1d.avg_blocked_cycles::no_targets          nan                       # average number of cycles each access was blocked
system.cpu.l1d.writebacks::.writebacks            915                       # number of writebacks
system.cpu.l1d.writebacks::total                  915                       # number of writebacks
system.cpu.l1d.demand_mshr_hits::.cpu.data          102                       # number of demand (read+write) MSHR hits
system.cpu.l1d.demand_mshr_hits::total            102                       # number of demand (read+write) MSHR hits
system.cpu.l1d.overall_mshr_hits::.cpu.data          102                       # number of overall MSHR hits
system.cpu.l1d.overall_mshr_hits::total           102                       # number of overall MSHR hits
system.cpu.l1d.demand_mshr_misses::.cpu.data         2300                       # number of demand (read+write) MSHR misses
system.cpu.l1d.demand_mshr_misses::total         2300                       # number of demand (read+write) MSHR misses
system.cpu.l1d.overall_mshr_misses::.cpu.data         2300                       # number of overall MSHR misses
system.cpu.l1d.overall_mshr_misses::total         2300                       # number of overall MSHR misses
system.cpu.l1d.demand_mshr_miss_latency::.cpu.data     97308000                       # number of demand (read+write) MSHR miss cycles
system.cpu.l1d.demand_mshr_miss_latency::total     97308000                       # number of demand (read+write) MSHR miss cycles
system.cpu.l1d.overall_mshr_miss_latency::.cpu.data     97308000                       # number of overall MSHR miss cycles
system.cpu.l1d.overall_mshr_miss_latency::total     97308000                       # number of overall MSHR miss cycles
system.cpu.l1d.demand_mshr_miss_rate::.cpu.data     0.042817                       # mshr miss rate for demand accesses
system.cpu.l1d.demand_mshr_miss_rate::total     0.042817                       # mshr miss rate for demand accesses
system.cpu.l1d.overall_mshr_miss_rate::.cpu.data     0.042817                       # mshr miss rate for overall accesses
system.cpu.l1d.overall_mshr_miss_rate::total     0.042817                       # mshr miss rate for overall accesses
system.cpu.l1d.demand_avg_mshr_miss_latency::.cpu.data 42307.826087                       # average overall mshr miss latency
system.cpu.l1d.demand_avg_mshr_miss_latency::total 42307.826087                       # average overall mshr miss latency
system.cpu.l1d.overall_avg_mshr_miss_latency::.cpu.data 42307.826087                       # average overall mshr miss latency
system.cpu.l1d.overall_avg_mshr_miss_latency::total 42307.826087                       # average overall mshr miss latency
system.cpu.l1d.replacements                      1788                       # number of replacements
system.cpu.l1d.ReadReq_hits::.cpu.data          33523                       # number of ReadReq hits
system.cpu.l1d.ReadReq_hits::total              33523                       # number of ReadReq hits
system.cpu.l1d.ReadReq_misses::.cpu.data         2191                       # number of ReadReq misses
system.cpu.l1d.ReadReq_misses::total             2191                       # number of ReadReq misses
system.cpu.l1d.ReadReq_miss_latency::.cpu.data     92625000                       # number of ReadReq miss cycles
system.cpu.l1d.ReadReq_miss_latency::total     92625000                       # number of ReadReq miss cycles
system.cpu.l1d.ReadReq_accesses::.cpu.data        35714                       # number of ReadReq accesses(hits+misses)
system.cpu.l1d.ReadReq_accesses::total          35714                       # number of ReadReq accesses(hits+misses)
system.cpu.l1d.ReadReq_miss_rate::.cpu.data     0.061348                       # miss rate for ReadReq accesses
system.cpu.l1d.ReadReq_miss_rate::total      0.061348                       # miss rate for ReadReq accesses
system.cpu.l1d.ReadReq_avg_miss_latency::.cpu.data 42275.216796                       # average ReadReq miss latency
system.cpu.l1d.ReadReq_avg_miss_latency::total 42275.216796                       # average ReadReq miss latency
system.cpu.l1d.ReadReq_mshr_hits::.cpu.data           16                       # number of ReadReq MSHR hits
system.cpu.l1d.ReadReq_mshr_hits::total            16                       # number of ReadReq MSHR hits
system.cpu.l1d.ReadReq_mshr_misses::.cpu.data         2175                       # number of ReadReq MSHR misses
system.cpu.l1d.ReadReq_mshr_misses::total         2175                       # number of ReadReq MSHR misses
system.cpu.l1d.ReadReq_mshr_miss_latency::.cpu.data     89362000                       # number of ReadReq MSHR miss cycles
system.cpu.l1d.ReadReq_mshr_miss_latency::total     89362000                       # number of ReadReq MSHR miss cycles
system.cpu.l1d.ReadReq_mshr_miss_rate::.cpu.data     0.060900                       # mshr miss rate for ReadReq accesses
system.cpu.l1d.ReadReq_mshr_miss_rate::total     0.060900                       # mshr miss rate for ReadReq accesses
system.cpu.l1d.ReadReq_avg_mshr_miss_latency::.cpu.data 41085.977011                       # average ReadReq mshr miss latency
system.cpu.l1d.ReadReq_avg_mshr_miss_latency::total 41085.977011                       # average ReadReq mshr miss latency
system.cpu.l1d.WriteReq_hits::.cpu.data         17792                       # number of WriteReq hits
system.cpu.l1d.WriteReq_hits::total             17792                       # number of WriteReq hits
system.cpu.l1d.WriteReq_misses::.cpu.data          211                       # number of WriteReq misses
system.cpu.l1d.WriteReq_misses::total             211                       # number of WriteReq misses
system.cpu.l1d.WriteReq_miss_latency::.cpu.data     12987000                       # number of WriteReq miss cycles
system.cpu.l1d.WriteReq_miss_latency::total     12987000                       # number of WriteReq miss cycles
system.cpu.l1d.WriteReq_accesses::.cpu.data        18003                       # number of WriteReq accesses(hits+misses)
system.cpu.l1d.WriteReq_accesses::total         18003                       # number of WriteReq accesses(hits+misses)
system.cpu.l1d.WriteReq_miss_rate::.cpu.data     0.011720                       # miss rate for WriteReq accesses
system.cpu.l1d.WriteReq_miss_rate::total     0.011720                       # miss rate for WriteReq accesses
system.cpu.l1d.WriteReq_avg_miss_latency::.cpu.data 61549.763033                       # average WriteReq miss latency
system.cpu.l1d.WriteReq_avg_miss_latency::total 61549.763033                       # average WriteReq miss latency
system.cpu.l1d.WriteReq_mshr_hits::.cpu.data           86                       # number of WriteReq MSHR hits
system.cpu.l1d.WriteReq_mshr_hits::total           86                       # number of WriteReq MSHR hits
system.cpu.l1d.WriteReq_mshr_misses::.cpu.data          125                       # number of WriteReq MSHR misses
system.cpu.l1d.WriteReq_mshr_misses::total          125                       # number of WriteReq MSHR misses
system.cpu.l1d.WriteReq_mshr_miss_latency::.cpu.data      7946000                       # number of WriteReq MSHR miss cycles
system.cpu.l1d.WriteReq_mshr_miss_latency::total      7946000                       # number of WriteReq MSHR miss cycles
system.cpu.l1d.WriteReq_mshr_miss_rate::.cpu.data     0.006943                       # mshr miss rate for WriteReq accesses
system.cpu.l1d.WriteReq_mshr_miss_rate::total     0.006943                       # mshr miss rate for WriteReq accesses
system.cpu.l1d.WriteReq_avg_mshr_miss_latency::.cpu.data        63568                       # average WriteReq mshr miss latency
system.cpu.l1d.WriteReq_avg_mshr_miss_latency::total        63568                       # average WriteReq mshr miss latency
system.cpu.l1d.power_state.pwrStateResidencyTicks::UNDEFINED    530732000                       # Cumulative time (in ticks) in various power states
system.cpu.l1d.tags.tagsinuse              446.375546                       # Cycle average of tags in use
system.cpu.l1d.tags.total_refs                  41515                       # Total number of references to valid blocks.
system.cpu.l1d.tags.sampled_refs                 1788                       # Sample count of references to valid blocks.
system.cpu.l1d.tags.avg_refs                23.218680                       # Average number of references to valid blocks.
system.cpu.l1d.tags.warmup_cycle               156000                       # Cycle when the warmup percentage was hit.
system.cpu.l1d.tags.occ_blocks::.cpu.data   446.375546                       # Average occupied blocks per requestor
system.cpu.l1d.tags.occ_percent::.cpu.data     0.871827                       # Average percentage of cache occupancy
system.cpu.l1d.tags.occ_percent::total       0.871827                       # Average percentage of cache occupancy
system.cpu.l1d.tags.occ_task_id_blocks::1024          512                       # Occupied blocks per task id
system.cpu.l1d.tags.age_task_id_blocks_1024::0           58                       # Occupied blocks per task id
system.cpu.l1d.tags.age_task_id_blocks_1024::1          424                       # Occupied blocks per task id
system.cpu.l1d.tags.age_task_id_blocks_1024::2           30                       # Occupied blocks per task id
system.cpu.l1d.tags.occ_task_id_percent::1024            1                       # Percentage of cache occupancy per task id
system.cpu.l1d.tags.tag_accesses               432036                       # Number of tag accesses
system.cpu.l1d.tags.data_accesses              432036                       # Number of data accesses
system.cpu.l1d.tags.power_state.pwrStateResidencyTicks::UNDEFINED    530732000                       # Cumulative time (in ticks) in various power states
system.cpu.l1i.demand_hits::.cpu.inst           69437                       # number of demand (read+write) hits
system.cpu.l1i.demand_hits::total               69437                       # number of demand (read+write) hits
system.cpu.l1i.overall_hits::.cpu.inst          69437                       # number of overall hits
system.cpu.l1i.overall_hits::total              69437                       # number of overall hits
system.cpu.l1i.demand_misses::.cpu.inst           566                       # number of demand (read+write) misses
system.cpu.l1i.demand_misses::total               566                       # number of demand (read+write) misses
system.cpu.l1i.overall_misses::.cpu.inst          566                       # number of overall misses
system.cpu.l1i.overall_misses::total              566                       # number of overall misses
system.cpu.l1i.demand_miss_latency::.cpu.inst     38558000                       # number of demand (read+write) miss cycles
system.cpu.l1i.demand_miss_latency::total     38558000                       # number of demand (read+write) miss cycles
system.cpu.l1i.overall_miss_latency::.cpu.inst     38558000                       # number of overall miss cycles
system.cpu.l1i.overall_miss_latency::total     38558000                       # number of overall miss cycles
system.cpu.l1i.demand_accesses::.cpu.inst        70003                       # number of demand (read+write) accesses
system.cpu.l1i.demand_accesses::total           70003                       # number of demand (read+write) accesses
system.cpu.l1i.overall_accesses::.cpu.inst        70003                       # number of overall (read+write) accesses
system.cpu.l1i.overall_accesses::total          70003                       # number of overall (read+write) accesses
system.cpu.l1i.demand_miss_rate::.cpu.inst     0.008085                       # miss rate for demand accesses
system.cpu.l1i.demand_miss_rate::total       0.008085                       # miss rate for demand accesses
system.cpu.l1i.overall_miss_rate::.cpu.inst     0.008085                       # miss rate for overall accesses
system.cpu.l1i.overall_miss_rate::total      0.008085                       # miss rate for overall accesses
system.cpu.l1i.demand_avg_miss_latency::.cpu.inst 68123.674912                       # average overall miss latency
system.cpu.l1i.demand_avg_miss_latency::total 68123.674912                       # average overall miss latency
system.cpu.l1i.overall_avg_miss_latency::.cpu.inst 68123.674912                       # average overall miss latency
system.cpu.l1i.overall_avg_miss_latency::total 68123.674912                       # average overall miss latency
system.cpu.l1i.blocked_cycles::no_mshrs             0                       # number of cycles access was blocked
system.cpu.l1i.blocked_cycles::no_targets            0                       # number of cycles access was blocked
system.cpu.l1i.blocked::no_mshrs                    0                       # number of cycles access was blocked
system.cpu.l1i.blocked::no_targets                  0                       # number of cycles access was blocked
system.cpu.l1i.avg_blocked_cycles::no_mshrs          nan                       # average number of cycles each access was blocked
system.cpu.l1i.avg_blocked_cycles::no_targets          nan                       # average number of cycles each access was blocked
system.cpu.l1i.demand_mshr_misses::.cpu.inst          566                       # number of demand (read+write) MSHR misses
system.cpu.l1i.demand_mshr_misses::total          566                       # number of demand (read+write) MSHR misses
system.cpu.l1i.overall_mshr_misses::.cpu.inst          566                       # number of overall MSHR misses
system.cpu.l1i.overall_mshr_misses::total          566                       # number of overall MSHR misses
system.cpu.l1i.demand_mshr_miss_latency::.cpu.inst     37993000                       # number of demand (read+write) MSHR miss cycles
system.cpu.l1i.demand_mshr_miss_latency::total     37993000                       # number of demand (read+write) MSHR miss cycles
system.cpu.l1i.overall_mshr_miss_latency::.cpu.inst     37993000                       # number of overall MSHR miss cycles
system.cpu.l1i.overall_mshr_miss_latency::total     37993000                       # number of overall MSHR miss cycles
system.cpu.l1i.demand_mshr_miss_rate::.cpu.inst     0.008085                       # mshr miss rate for demand accesses
system.cpu.l1i.demand_mshr_miss_rate::total     0.008085                       # mshr miss rate for demand accesses
system.cpu.l1i.overall_mshr_miss_rate::.cpu.inst     0.008085                       # mshr miss rate for overall accesses
system.cpu.l1i.overall_mshr_miss_rate::total     0.008085                       # mshr miss rate for overall accesses
system.cpu.l1i.demand_avg_mshr_miss_latency::.cpu.inst 67125.441696                       # average overall mshr miss latency
system.cpu.l1i.demand_avg_mshr_miss_latency::total 67125.441696                       # average overall mshr miss latency
system.cpu.l1i.overall_avg_mshr_miss_latency::.cpu.inst 67125.441696                       # average overall mshr miss latency
system.cpu.l1i.overall_avg_mshr_miss_latency::total 67125.441696                       # average overall mshr miss latency
system.cpu.l1i.replacements                        77                       # number of replacements
system.cpu.l1i.ReadReq_hits::.cpu.inst          69437                       # number of ReadReq hits
system.cpu.l1i.ReadReq_hits::total              69437                       # number of ReadReq hits
system.cpu.l1i.ReadReq_misses::.cpu.inst          566                       # number of ReadReq misses
system.cpu.l1i.ReadReq_misses::total              566                       # number of ReadReq misses
system.cpu.l1i.ReadReq_miss_latency::.cpu.inst     38558000                       # number of ReadReq miss cycles
system.cpu.l1i.ReadReq_miss_latency::total     38558000                       # number of ReadReq miss cycles
system.cpu.l1i.ReadReq_accesses::.cpu.inst        70003                       # number of ReadReq accesses(hits+misses)
system.cpu.l1i.ReadReq_accesses::total          70003                       # number of ReadReq accesses(hits+misses)
system.cpu.l1i.ReadReq_miss_rate::.cpu.inst     0.008085                       # miss rate for ReadReq accesses
system.cpu.l1i.ReadReq_miss_rate::total      0.008085                       # miss rate for ReadReq accesses
system.cpu.l1i.ReadReq_avg_miss_latency::.cpu.inst 68123.674912                       # average ReadReq miss latency
system.cpu.l1i.ReadReq_avg_miss_latency::total 68123.674912                       # average ReadReq miss latency
system.cpu.l1i.ReadReq_mshr_misses::.cpu.inst          566                       # number of ReadReq MSHR misses
system.cpu.l1i.ReadReq_mshr_misses::total          566                       # number of ReadReq MSHR misses
system.cpu.l1i.ReadReq_mshr_miss_latency::.cpu.inst     37993000                       # number of ReadReq MSHR miss cycles
system.cpu.l1i.ReadReq_mshr_miss_latency::total     37993000                       # number of ReadReq MSHR miss cycles
system.cpu.l1i.ReadReq_mshr_miss_rate::.cpu.inst     0.008085                       # mshr miss rate for ReadReq accesses
system.cpu.l1i.ReadReq_mshr_miss_rate::total     0.008085                       # mshr miss rate for ReadReq accesses
system.cpu.l1i.ReadReq_avg_mshr_miss_latency::.cpu.inst 67125.441696                       # average ReadReq mshr miss latency
system.cpu.l1i.ReadReq_avg_mshr_miss_latency::total 67125.441696                       # average ReadReq mshr miss latency
system.cpu.l1i.power_state.pwrStateResidencyTicks::UNDEFINED    530732000                       # Cumulative time (in ticks) in various power states
system.cpu.l1i.tags.tagsinuse              436.138445                       # Cycle average of tags in use
system.cpu.l1i.tags.total_refs                    364                       # Total number of references to valid blocks.
system.cpu.l1i.tags.sampled_refs                   77                       # Sample count of references to valid blocks.
system.cpu.l1i.tags.avg_refs                 4.727273                       # Average number of references to valid blocks.
system.cpu.l1i.tags.warmup_cycle                76000                       # Cycle when the warmup percentage was hit.
system.cpu.l1i.tags.occ_blocks::.cpu.inst   436.138445                       # Average occupied blocks per requestor
system.cpu.l1i.tags.occ_percent::.cpu.inst     0.851833                       # Average percentage of cache occupancy
system.cpu.l1i.tags.occ_percent::total       0.851833                       # Average percentage of cache occupancy
system.cpu.l1i.tags.occ_task_id_blocks::1024          488                       # Occupied blocks per task id
system.cpu.l1i.tags.age_task_id_blocks_1024::0           49                       # Occupied blocks per task id
system.cpu.l1i.tags.age_task_id_blocks_1024::2          439                       # Occupied blocks per task id
system.cpu.l1i.tags.occ_task_id_percent::1024     0.953125                       # Percentage of cache occupancy per task id
system.cpu.l1i.tags.tag_accesses               560589                       # Number of tag accesses
system.cpu.l1i.tags.data_accesses              560589                       # Number of data accesses
system.cpu.l1i.tags.power_state.pwrStateResidencyTicks::UNDEFINED    530732000                       # Cumulative time (in ticks) in various power states
system.cpu.power_state.pwrStateResidencyTicks::ON    530732000                       # Cumulative time (in ticks) in various power states
system.cpu.thread_0.numInsts                   123022                       # Number of Instructions committed
system.cpu.thread_0.numOps                     245558                       # Number of Ops committed
system.cpu.thread_0.numMemRefs                      0                       # Number of Memory References
system.l1_to_l2.trans_dist::ReadResp             2740                       # Transaction distribution
system.l1_to_l2.trans_dist::WritebackDirty          915                       # Transaction distribution
system.l1_to_l2.trans_dist::CleanEvict            950                       # Transaction distribution
system.l1_to_l2.trans_dist::ReadExReq             125                       # Transaction distribution
system.l1_to_l2.trans_dist::ReadExResp            125                       # Transaction distribution
system.l1_to_l2.trans_dist::ReadSharedReq         2741                       # Transaction distribution
system.l1_to_l2.pkt_count_system.cpu.l1d.mem_side_port::system.l2cache.cpu_side_port         6388                       # Packet count per connected requestor and responder (bytes)
system.l1_to_l2.pkt_count_system.cpu.l1i.mem_side_port::system.l2cache.cpu_side_port         1208                       # Packet count per connected requestor and responder (bytes)
system.l1_to_l2.pkt_count::total                 7596                       # Packet count per connected requestor and responder (bytes)
system.l1_to_l2.pkt_size_system.cpu.l1d.mem_side_port::system.l2cache.cpu_side_port       205760                       # Cumulative packet size per connected requestor and responder (bytes)
system.l1_to_l2.pkt_size_system.cpu.l1i.mem_side_port::system.l2cache.cpu_side_port        36160                       # Cumulative packet size per connected requestor and responder (bytes)
system.l1_to_l2.pkt_size::total                241920                       # Cumulative packet size per connected requestor and responder (bytes)
system.l1_to_l2.snoops                              0                       # Total snoops (count)
system.l1_to_l2.snoopTraffic                        0                       # Total snoop traffic (bytes)
system.l1_to_l2.snoop_fanout::samples            2866                       # Request fanout histogram
system.l1_to_l2.snoop_fanout::mean                  0                       # Request fanout histogram
system.l1_to_l2.snoop_fanout::stdev                 0                       # Request fanout histogram
system.l1_to_l2.snoop_fanout::underflows            0      0.00%      0.00% # Request fanout histogram
system.l1_to_l2.snoop_fanout::0                  2866    100.00%    100.00% # Request fanout histogram
system.l1_to_l2.snoop_fanout::1                     0      0.00%    100.00% # Request fanout histogram
system.l1_to_l2.snoop_fanout::2                     0      0.00%    100.00% # Request fanout histogram
system.l1_to_l2.snoop_fanout::overflows             0      0.00%    100.00% # Request fanout histogram
system.l1_to_l2.snoop_fanout::min_value             0                       # Request fanout histogram
system.l1_to_l2.snoop_fanout::max_value             0                       # Request fanout histogram
system.l1_to_l2.snoop_fanout::total              2866                       # Request fanout histogram
system.l1_to_l2.power_state.pwrStateResidencyTicks::UNDEFINED    530732000                       # Cumulative time (in ticks) in various power states
system.l1_to_l2.reqLayer0.occupancy           5646000                       # Layer occupancy (ticks)
system.l1_to_l2.reqLayer0.utilization             1.1                       # Layer utilization (%)
system.l1_to_l2.respLayer0.occupancy          4600000                       # Layer occupancy (ticks)
system.l1_to_l2.respLayer0.utilization            0.9                       # Layer utilization (%)
system.l1_to_l2.respLayer1.occupancy          1130000                       # Layer occupancy (ticks)
system.l1_to_l2.respLayer1.utilization            0.2                       # Layer utilization (%)
system.l2cache.demand_hits::.cpu.inst               7                       # number of demand (read+write) hits
system.l2cache.demand_hits::.cpu.data            1044                       # number of demand (read+write) hits
system.l2cache.demand_hits::total                1051                       # number of demand (read+write) hits
system.l2cache.overall_hits::.cpu.inst              7                       # number of overall hits
system.l2cache.overall_hits::.cpu.data           1044                       # number of overall hits
system.l2cache.overall_hits::total               1051                       # number of overall hits
system.l2cache.demand_misses::.cpu.inst           559                       # number of demand (read+write) misses
system.l2cache.demand_misses::.cpu.data          1256                       # number of demand (read+write) misses
system.l2cache.demand_misses::total              1815                       # number of demand (read+write) misses
system.l2cache.overall_misses::.cpu.inst          559                       # number of overall misses
system.l2cache.overall_misses::.cpu.data         1256                       # number of overall misses
system.l2cache.overall_misses::total             1815                       # number of overall misses
system.l2cache.demand_miss_latency::.cpu.inst     36786000                       # number of demand (read+write) miss cycles
system.l2cache.demand_miss_latency::.cpu.data     81220000                       # number of demand (read+write) miss cycles
system.l2cache.demand_miss_latency::total    118006000                       # number of demand (read+write) miss cycles
system.l2cache.overall_miss_latency::.cpu.inst     36786000                       # number of overall miss cycles
system.l2cache.overall_miss_latency::.cpu.data     81220000                       # number of overall miss cycles
system.l2cache.overall_miss_latency::total    118006000                       # number of overall miss cycles
system.l2cache.demand_accesses::.cpu.inst          566                       # number of demand (read+write) accesses
system.l2cache.demand_accesses::.cpu.data         2300                       # number of demand (read+write) accesses
system.l2cache.demand_accesses::total            2866                       # number of demand (read+write) accesses
system.l2cache.overall_accesses::.cpu.inst          566                       # number of overall (read+write) accesses
system.l2cache.overall_accesses::.cpu.data         2300                       # number of overall (read+write) accesses
system.l2cache.overall_accesses::total           2866                       # number of overall (read+write) accesses
system.l2cache.demand_miss_rate::.cpu.inst     0.987633                       # miss rate for demand accesses
system.l2cache.demand_miss_rate::.cpu.data     0.546087                       # miss rate for demand accesses
system.l2cache.demand_miss_rate::total       0.633287                       # miss rate for demand accesses
system.l2cache.overall_miss_rate::.cpu.inst     0.987633                       # miss rate for overall accesses
system.l2cache.overall_miss_rate::.cpu.data     0.546087                       # miss rate for overall accesses
system.l2cache.overall_miss_rate::total      0.633287                       # miss rate for overall accesses
system.l2cache.demand_avg_miss_latency::.cpu.inst 65806.797853                       # average overall miss latency
system.l2cache.demand_avg_miss_latency::.cpu.data 64665.605096                       # average overall miss latency
system.l2cache.demand_avg_miss_latency::total 65017.079890                       # average overall miss latency
system.l2cache.overall_avg_miss_latency::.cpu.inst 65806.797853                       # average overall miss latency
system.l2cache.overall_avg_miss_latency::.cpu.data 64665.605096                       # average overall miss latency
system.l2cache.overall_avg_miss_latency::total 65017.079890                       # average overall miss latency
system.l2cache.blocked_cycles::no_mshrs             0                       # number of cycles access was blocked
system.l2cache.blocked_cycles::no_targets            0                       # number of cycles access was blocked
system.l2cache.blocked::no_mshrs                    0                       # number of cycles access was blocked
system.l2cache.blocked::no_targets                  0                       # number of cycles access was blocked
system.l2cache.avg_blocked_cycles::no_mshrs          nan                       # average number of cycles each access was blocked
system.l2cache.avg_blocked_cycles::no_targets          nan                       # average number of cycles each access was blocked
system.l2cache.demand_mshr_misses::.cpu.inst          559                       # number of demand (read+write) MSHR misses
system.l2cache.demand_mshr_misses::.cpu.data         1256                       # number of demand (read+write) MSHR misses
system.l2cache.demand_mshr_misses::total         1815                       # number of demand (read+write) MSHR misses
system.l2cache.overall_mshr_misses::.cpu.inst          559                       # number of overall MSHR misses
system.l2cache.overall_mshr_misses::.cpu.data         1256                       # number of overall MSHR misses
system.l2cache.overall_mshr_misses::total         1815                       # number of overall MSHR misses
system.l2cache.demand_mshr_miss_latency::.cpu.inst     36228000                       # number of demand (read+write) MSHR miss cycles
system.l2cache.demand_mshr_miss_latency::.cpu.data     79964000                       # number of demand (read+write) MSHR miss cycles
system.l2cache.demand_mshr_miss_latency::total    116192000                       # number of demand (read+write) MSHR miss cycles
system.l2cache.overall_mshr_miss_latency::.cpu.inst     36228000                       # number of overall MSHR miss cycles
system.l2cache.overall_mshr_miss_latency::.cpu.data     79964000                       # number of overall MSHR miss cycles
system.l2cache.overall_mshr_miss_latency::total    116192000                       # number of overall MSHR miss cycles
system.l2cache.demand_mshr_miss_rate::.cpu.inst     0.987633                       # mshr miss rate for demand accesses
system.l2cache.demand_mshr_miss_rate::.cpu.data     0.546087                       # mshr miss rate for demand accesses
system.l2cache.demand_mshr_miss_rate::total     0.633287                       # mshr miss rate for demand accesses
system.l2cache.overall_mshr_miss_rate::.cpu.inst     0.987633                       # mshr miss rate for overall accesses
system.l2cache.overall_mshr_miss_rate::.cpu.data     0.546087                       # mshr miss rate for overall accesses
system.l2cache.overall_mshr_miss_rate::total     0.633287                       # mshr miss rate for overall accesses
system.l2cache.demand_avg_mshr_miss_latency::.cpu.inst 64808.586762                       # average overall mshr miss latency
system.l2cache.demand_avg_mshr_miss_latency::.cpu.data 63665.605096                       # average overall mshr miss latency
system.l2cache.demand_avg_mshr_miss_latency::total 64017.630854                       # average overall mshr miss latency
system.l2cache.overall_avg_mshr_miss_latency::.cpu.inst 64808.586762                       # average overall mshr miss latency
system.l2cache.overall_avg_mshr_miss_latency::.cpu.data 63665.605096                       # average overall mshr miss latency
system.l2cache.overall_avg_mshr_miss_latency::total 64017.630854                       # average overall mshr miss latency
system.l2cache.replacements                         0                       # number of replacements
system.l2cache.WritebackDirty_hits::.writebacks          915                       # number of WritebackDirty hits
system.l2cache.WritebackDirty_hits::total          915                       # number of WritebackDirty hits
system.l2cache.WritebackDirty_accesses::.writebacks          915                       # number of WritebackDirty accesses(hits+misses)
system.l2cache.WritebackDirty_accesses::total          915                       # number of WritebackDirty accesses(hits+misses)
system.l2cache.ReadExReq_hits::.cpu.data            5                       # number of ReadExReq hits
system.l2cache.ReadExReq_hits::total                5                       # number of ReadExReq hits
system.l2cache.ReadExReq_misses::.cpu.data          120                       # number of ReadExReq misses
system.l2cache.ReadExReq_misses::total            120                       # number of ReadExReq misses
system.l2cache.ReadExReq_miss_latency::.cpu.data      7639000                       # number of ReadExReq miss cycles
system.l2cache.ReadExReq_miss_latency::total      7639000                       # number of ReadExReq miss cycles
system.l2cache.ReadExReq_accesses::.cpu.data          125                       # number of ReadExReq accesses(hits+misses)
system.l2cache.ReadExReq_accesses::total          125                       # number of ReadExReq accesses(hits+misses)
system.l2cache.ReadExReq_miss_rate::.cpu.data     0.960000                       # miss rate for ReadExReq accesses
system.l2cache.ReadExReq_miss_rate::total     0.960000                       # miss rate for ReadExReq accesses
system.l2cache.ReadExReq_avg_miss_latency::.cpu.data 63658.333333                       # average ReadExReq miss latency
system.l2cache.ReadExReq_avg_miss_latency::total 63658.333333                       # average ReadExReq miss latency
system.l2cache.ReadExReq_mshr_misses::.cpu.data          120                       # number of ReadExReq MSHR misses
system.l2cache.ReadExReq_mshr_misses::total          120                       # number of ReadExReq MSHR misses
system.l2cache.ReadExReq_mshr_miss_latency::.cpu.data      7519000                       # number of ReadExReq MSHR miss cycles
system.l2cache.ReadExReq_mshr_miss_latency::total      7519000                       # number of ReadExReq MSHR miss cycles
system.l2cache.ReadExReq_mshr_miss_rate::.cpu.data     0.960000                       # mshr miss rate for ReadExReq accesses
system.l2cache.ReadExReq_mshr_miss_rate::total     0.960000                       # mshr miss rate for ReadExReq accesses
system.l2cache.ReadExReq_avg_mshr_miss_latency::.cpu.data 62658.333333                       # average ReadExReq mshr miss latency
system.l2cache.ReadExReq_avg_mshr_miss_latency::total 62658.333333                       # average ReadExReq mshr miss latency
system.l2cache.ReadSharedReq_hits::.cpu.inst            7                       # number of ReadSharedReq hits
system.l2cache.ReadSharedReq_hits::.cpu.data         1039                       # number of ReadSharedReq hits
system.l2cache.ReadSharedReq_hits::total         1046                       # number of ReadSharedReq hits
system.l2cache.ReadSharedReq_misses::.cpu.inst          559                       # number of ReadSharedReq misses
system.l2cache.ReadSharedReq_misses::.cpu.data         1136                       # number of ReadSharedReq misses
system.l2cache.ReadSharedReq_misses::total         1695                       # number of ReadSharedReq misses
system.l2cache.ReadSharedReq_miss_latency::.cpu.inst     36786000                       # number of ReadSharedReq miss cycles
system.l2cache.ReadSharedReq_miss_latency::.cpu.data     73581000                       # number of ReadSharedReq miss cycles
system.l2cache.ReadSharedReq_miss_latency::total    110367000                       # number of ReadSharedReq miss cycles
system.l2cache.ReadSharedReq_accesses::.cpu.inst          566                       # number of ReadSharedReq accesses(hits+misses)
system.l2cache.ReadSharedReq_accesses::.cpu.data         2175                       # number of ReadSharedReq accesses(hits+misses)
system.l2cache.ReadSharedReq_accesses::total         2741                       # number of ReadSharedReq accesses(hits+misses)
system.l2cache.ReadSharedReq_miss_rate::.cpu.inst     0.987633                       # miss rate for ReadSharedReq accesses
system.l2cache.ReadSharedReq_miss_rate::.cpu.data     0.522299                       # miss rate for ReadSharedReq accesses
system.l2cache.ReadSharedReq_miss_rate::total     0.618387                       # miss rate for ReadSharedReq accesses
system.l2cache.ReadSharedReq_avg_miss_latency::.cpu.inst 65806.797853                       # average ReadSharedReq miss latency
system.l2cache.ReadSharedReq_avg_miss_latency::.cpu.data 64772.007042                       # average ReadSharedReq miss latency
system.l2cache.ReadSharedReq_avg_miss_latency::total 65113.274336                       # average ReadSharedReq miss latency
system.l2cache.ReadSharedReq_mshr_misses::.cpu.inst          559                       # number of ReadSharedReq MSHR misses
system.l2cache.ReadSharedReq_mshr_misses::.cpu.data         1136                       # number of ReadSharedReq MSHR misses
system.l2cache.ReadSharedReq_mshr_misses::total         1695                       # number of ReadSharedReq MSHR misses
system.l2cache.ReadSharedReq_mshr_miss_latency::.cpu.inst     36228000                       # number of ReadSharedReq MSHR miss cycles
system.l2cache.ReadSharedReq_mshr_miss_latency::.cpu.data     72445000                       # number of ReadSharedReq MSHR miss cycles
system.l2cache.ReadSharedReq_mshr_miss_latency::total    108673000                       # number of ReadSharedReq MSHR miss cycles
system.l2cache.ReadSharedReq_mshr_miss_rate::.cpu.inst     0.987633                       # mshr miss rate for ReadSharedReq accesses
system.l2cache.ReadSharedReq_mshr_miss_rate::.cpu.data     0.522299                       # mshr miss rate for ReadSharedReq accesses
system.l2cache.ReadSharedReq_mshr_miss_rate::total     0.618387                       # mshr miss rate for ReadSharedReq accesses
system.l2cache.ReadSharedReq_avg_mshr_miss_latency::.cpu.inst 64808.586762                       # average ReadSharedReq mshr miss latency
system.l2cache.ReadSharedReq_avg_mshr_miss_latency::.cpu.data 63772.007042                       # average ReadSharedReq mshr miss latency
system.l2cache.ReadSharedReq_avg_mshr_miss_latency::total 64113.864307                       # average ReadSharedReq mshr miss latency
system.l2cache.power_state.pwrStateResidencyTicks::UNDEFINED    530732000                       # Cumulative time (in ticks) in various power states
system.l2cache.tags.tagsinuse             1347.523028                       # Cycle average of tags in use
system.l2cache.tags.total_refs                      0                       # Total number of references to valid blocks.
system.l2cache.tags.sampled_refs                    0                       # Sample count of references to valid blocks.
system.l2cache.tags.avg_refs                      nan                       # Average number of references to valid blocks.
system.l2cache.tags.warmup_cycle                74000                       # Cycle when the warmup percentage was hit.
system.l2cache.tags.occ_blocks::.cpu.inst   483.083291                       # Average occupied blocks per requestor
system.l2cache.tags.occ_blocks::.cpu.data   864.439737                       # Average occupied blocks per requestor
system.l2cache.tags.occ_percent::.cpu.inst     0.029485                       # Average percentage of cache occupancy
system.l2cache.tags.occ_percent::.cpu.data     0.052761                       # Average percentage of cache occupancy
system.l2cache.tags.occ_percent::total       0.082246                       # Average percentage of cache occupancy
system.l2cache.tags.occ_task_id_blocks::1024         1814                       # Occupied blocks per task id
system.l2cache.tags.age_task_id_blocks_1024::0           63                       # Occupied blocks per task id
system.l2cache.tags.age_task_id_blocks_1024::2         1751                       # Occupied blocks per task id
system.l2cache.tags.occ_task_id_percent::1024     0.110718                       # Percentage of cache occupancy per task id
system.l2cache.tags.tag_accesses                77510                       # Number of tag accesses
system.l2cache.tags.data_accesses               77510                       # Number of data accesses
system.l2cache.tags.power_state.pwrStateResidencyTicks::UNDEFINED    530732000                       # Cumulative time (in ticks) in various power states
system.mem_ctrl.avgPriority_.cpu.inst::samples       558.00                       # Average QoS priority value for accepted requests
system.mem_ctrl.avgPriority_.cpu.data::samples      1256.00                       # Average QoS priority value for accepted requests
system.mem_ctrl.priorityMinLatency       0.000000016842                       # per QoS priority minimum request to response latency (s)
system.mem_ctrl.priorityMaxLatency       0.000000559232                       # per QoS priority maximum request to response latency (s)
system.mem_ctrl.numReadWriteTurnArounds             0                       # Number of turnarounds from READ to WRITE
system.mem_ctrl.numWriteReadTurnArounds             0                       # Number of turnarounds from WRITE to READ
system.mem_ctrl.numStayReadState                 3761                       # Number of times bus staying in READ state
system.mem_ctrl.numStayWriteState                   0                       # Number of times bus staying in WRITE state
system.mem_ctrl.readReqs                         1814                       # Number of read requests accepted
system.mem_ctrl.writeReqs                           0                       # Number of write requests accepted
system.mem_ctrl.readBursts                       1814                       # Number of controller read bursts, including those serviced by the write queue
system.mem_ctrl.writeBursts                         0                       # Number of controller write bursts, including those merged in the write queue
system.mem_ctrl.servicedByWrQ                       0                       # Number of controller read bursts serviced by the write queue
system.mem_ctrl.mergedWrBursts                      0                       # Number of controller write bursts merged with an existing one
system.mem_ctrl.neitherReadNorWriteReqs             0                       # Number of requests that are neither read nor write
system.mem_ctrl.avgRdQLen                        1.01                       # Average read queue length when enqueuing
system.mem_ctrl.avgWrQLen                        0.00                       # Average write queue length when enqueuing
system.mem_ctrl.numRdRetry                          0                       # Number of times read queue was full causing retry
system.mem_ctrl.numWrRetry                          0                       # Number of times write queue was full causing retry
system.mem_ctrl.readPktSize::0                      0                       # Read request sizes (log2)
system.mem_ctrl.readPktSize::1                      0                       # Read request sizes (log2)
system.mem_ctrl.readPktSize::2                      0                       # Read request sizes (log2)
system.mem_ctrl.readPktSize::3                      0                       # Read request sizes (log2)
system.mem_ctrl.readPktSize::4                      0                       # Read request sizes (log2)
system.mem_ctrl.readPktSize::5                      0                       # Read request sizes (log2)
system.mem_ctrl.readPktSize::6                   1814                       # Read request sizes (log2)
system.mem_ctrl.writePktSize::0                     0                       # Write request sizes (log2)
system.mem_ctrl.writePktSize::1                     0                       # Write request sizes (log2)
system.mem_ctrl.writePktSize::2                     0                       # Write request sizes (log2)
system.mem_ctrl.writePktSize::3                     0                       # Write request sizes (log2)
system.mem_ctrl.writePktSize::4                     0                       # Write request sizes (log2)
system.mem_ctrl.writePktSize::5                     0                       # Write request sizes (log2)
system.mem_ctrl.writePktSize::6                     0                       # Write request sizes (log2)
system.mem_ctrl.rdQLenPdf::0                     1731                       # What read queue length does an incoming req see
system.mem_ctrl.rdQLenPdf::1                       79                       # What read queue length does an incoming req see
system.mem_ctrl.rdQLenPdf::2                        4                       # What read queue length does an incoming req see
system.mem_ctrl.rdQLenPdf::3                        0                       # What read queue length does an incoming req see
system.mem_ctrl.rdQLenPdf::4                        0                       # What read queue length does an incoming req see
system.mem_ctrl.rdQLenPdf::5                        0                       # What read queue length does an incoming req see
system.mem_ctrl.rdQLenPdf::6                        0                       # What read queue length does an incoming req see
system.mem_ctrl.rdQLenPdf::7                        0                       # What read queue length does an incoming req see
system.mem_ctrl.rdQLenPdf::8                        0                       # What read queue length does an incoming req see
system.mem_ctrl.rdQLenPdf::9                        0                       # What read queue length does an incoming req see
system.mem_ctrl.rdQLenPdf::10                       0                       # What read queue length does an incoming req see
system.mem_ctrl.rdQLenPdf::11                       0                       # What read queue length does an incoming req see
system.mem_ctrl.rdQLenPdf::12                       0                       # What read queue length does an incoming req see
system.mem_ctrl.rdQLenPdf::13                       0                       # What read queue length does an incoming req see
system.mem_ctrl.rdQLenPdf::14                       0                       # What read queue length does an incoming req see
system.mem_ctrl.rdQLenPdf::15                       0                       # What read queue length does an incoming req see
system.mem_ctrl.rdQLenPdf::16                       0                       # What read queue length does an incoming req see
system.mem_ctrl.rdQLenPdf::17                       0                       # What read queue length does an incoming req see
system.mem_ctrl.rdQLenPdf::18                       0                       # What read queue length does an incoming req see
system.mem_ctrl.rdQLenPdf::19                       0                       # What read queue length does an incoming req see
system.mem_ctrl.rdQLenPdf::20                       0                       # What read queue length does an incoming req see
system.mem_ctrl.rdQLenPdf::21                       0                       # What read queue length does an incoming req see
system.mem_ctrl.rdQLenPdf::22                       0                       # What read queue length does an incoming req see
system.mem_ctrl.rdQLenPdf::23                       0                       # What read queue length does an incoming req see
system.mem_ctrl.rdQLenPdf::24                       0                       # What read queue length does an incoming req see
system.mem_ctrl.rdQLenPdf::25                       0                       # What read queue length does an incoming req see
system.mem_ctrl.rdQLenPdf::26                       0                       # What read queue length does an incoming req see
system.mem_ctrl.rdQLenPdf::27                       0                       # What read queue length does an incoming req see
system.mem_ctrl.rdQLenPdf::28                       0                       # What read queue length does an incoming req see
system.mem_ctrl.rdQLenPdf::29                       0                       # What read queue length does an incoming req see
system.mem_ctrl.rdQLenPdf::30                       0                       # What read queue length does an incoming req see
system.mem_ctrl.rdQLenPdf::31                       0                       # What read queue length does an incoming req see
system.mem_ctrl.wrQLenPdf::0                        0                       # What write queue length does an incoming req see
system.mem_ctrl.wrQLenPdf::1                        0                       # What write queue length does an incoming req see
system.mem_ctrl.wrQLenPdf::2                        0                       # What write queue length does an incoming req see
system.mem_ctrl.wrQLenPdf::3                        0                       # What write queue length does an incoming req see
system.mem_ctrl.wrQLenPdf::4                        0                       # What write queue length does an incoming req see
system.mem_ctrl.wrQLenPdf::5                        0                       # What write queue length does an incoming req see
system.mem_ctrl.wrQLenPdf::6                        0                       # What write queue length does an incoming req see
system.mem_ctrl.wrQLenPdf::7                        0                       # What write queue length does an incoming req see
system.mem_ctrl.wrQLenPdf::8                        0                       # What write queue length does an incoming req see
system.mem_ctrl.wrQLenPdf::9                        0                       # What write queue length does an incoming req see
system.mem_ctrl.wrQLenPdf::10                       0                       # What write queue length does an incoming req see
system.mem_ctrl.wrQLenPdf::11                       0                       # What write queue length does an incoming req see
system.mem_ctrl.wrQLenPdf::12                       0                       # What write queue length does an incoming req see
system.mem_ctrl.wrQLenPdf::13                       0                       # What write queue length does an incoming req see
system.mem_ctrl.wrQLenPdf::14                       0                       # What write queue length does an incoming req see
system.mem_ctrl.wrQLenPdf::15                       0                       # What write queue length does an incoming req see
system.mem_ctrl.wrQLenPdf::16                       0                       # What write queue length does an incoming req see
system.mem_ctrl.wrQLenPdf::17                       0                       # What write queue length does an incoming req see
system.mem_ctrl.wrQLenPdf::18                       0                       # What write queue length does an incoming req see
system.mem_ctrl.wrQLenPdf::19                       0                       # What write queue length does an incoming req see
system.mem_ctrl.wrQLenPdf::20                       0                       # What write queue length does an incoming req see
system.mem_ctrl.wrQLenPdf::21                       0                       # What write queue length does an incoming req see
system.mem_ctrl.wrQLenPdf::22                       0                       # What write queue length does an incoming req see
system.mem_ctrl.wrQLenPdf::23                       0                       # What write queue length does an incoming req see
system.mem_ctrl.wrQLenPdf::24                       0                       # What write queue length does an incoming req see
system.mem_ctrl.wrQLenPdf::25                       0                       # What write queue length does an incoming req see
system.mem_ctrl.wrQLenPdf::26                       0                       # What write queue length does an incoming req see
system.mem_ctrl.wrQLenPdf::27                       0                       # What write queue length does an incoming req see
system.mem_ctrl.wrQLenPdf::28                       0                       # What write queue length does an incoming req see
system.mem_ctrl.wrQLenPdf::29                       0                       # What write queue length does an incoming req see
system.mem_ctrl.wrQLenPdf::30                       0                       # What write queue length does an incoming req see
system.mem_ctrl.wrQLenPdf::31                       0                       # What write queue length does an incoming req see
system.mem_ctrl.wrQLenPdf::32                       0                       # What write queue length does an incoming req see
system.mem_ctrl.wrQLenPdf::33                       0                       # What write queue length does an incoming req see
system.mem_ctrl.wrQLenPdf::34                       0                       # What write queue length does an incoming req see
system.mem_ctrl.wrQLenPdf::35                       0                       # What write queue length does an incoming req see
system.mem_ctrl.wrQLenPdf::36                       0                       # What write queue length does an incoming req see
system.mem_ctrl.wrQLenPdf::37                       0                       # What write queue length does an incoming req see
system.mem_ctrl.wrQLenPdf::38                       0                       # What write queue length does an incoming req see
system.mem_ctrl.wrQLenPdf::39                       0                       # What write queue length does an incoming req see
system.mem_ctrl.wrQLenPdf::40                       0                       # What write queue length does an incoming req see
system.mem_ctrl.wrQLenPdf::41                       0                       # What write queue length does an incoming req see
system.mem_ctrl.wrQLenPdf::42                       0                       # What write queue length does an incoming req see
system.mem_ctrl.wrQLenPdf::43                       0                       # What write queue length does an incoming req see
system.mem_ctrl.wrQLenPdf::44                       0                       # What write queue length does an incoming req see
system.mem_ctrl.wrQLenPdf::45                       0                       # What write queue length does an incoming req see
system.mem_ctrl.wrQLenPdf::46                       0                       # What write queue length does an incoming req see
system.mem_ctrl.wrQLenPdf::47                       0                       # What write queue length does an incoming req see
system.mem_ctrl.wrQLenPdf::48                       0                       # What write queue length does an incoming req see
system.mem_ctrl.wrQLenPdf::49                       0                       # What write queue length does an incoming req see
system.mem_ctrl.wrQLenPdf::50                       0                       # What write queue length does an incoming req see
system.mem_ctrl.wrQLenPdf::51                       0                       # What write queue length does an incoming req see
system.mem_ctrl.wrQLenPdf::52                       0                       # What write queue length does an incoming req see
system.mem_ctrl.wrQLenPdf::53                       0                       # What write queue length does an incoming req see
system.mem_ctrl.wrQLenPdf::54                       0                       # What write queue length does an incoming req see
system.mem_ctrl.wrQLenPdf::55                       0                       # What write queue length does an incoming req see
system.mem_ctrl.wrQLenPdf::56                       0                       # What write queue length does an incoming req see
system.mem_ctrl.wrQLenPdf::57                       0                       # What write queue length does an incoming req see
system.mem_ctrl.wrQLenPdf::58                       0                       # What write queue length does an incoming req see
system.mem_ctrl.wrQLenPdf::59                       0                       # What write queue length does an incoming req see
system.mem_ctrl.wrQLenPdf::60                       0                       # What write queue length does an incoming req see
system.mem_ctrl.wrQLenPdf::61                       0                       # What write queue length does an incoming req see
system.mem_ctrl.wrQLenPdf::62                       0                       # What write queue length does an incoming req see
system.mem_ctrl.wrQLenPdf::63                       0                       # What write queue length does an incoming req see
system.mem_ctrl.bytesReadWrQ                        0                       # Total number of bytes read from write queue
system.mem_ctrl.bytesReadSys                   116096                       # Total read bytes from the system interface side
system.mem_ctrl.bytesWrittenSys                     0                       # Total written bytes from the system interface side
system.mem_ctrl.avgRdBWSys                     218.75                       # Average system read bandwidth in MiByte/s
system.mem_ctrl.avgWrBWSys                       0.00                       # Average system write bandwidth in MiByte/s
system.mem_ctrl.totGap                      530659000                       # Total gap between requests
system.mem_ctrl.avgGap                      292535.28                       # Average gap between requests
system.mem_ctrl.requestorReadBytes::.cpu.inst        35712                       # Per-requestor bytes read from memory
system.mem_ctrl.requestorReadBytes::.cpu.data        80384                       # Per-requestor bytes read from memory
system.mem_ctrl.requestorReadRate::.cpu.inst 67288198.186655417085                       # Per-requestor bytes read from memory rate (Bytes/sec)
system.mem_ctrl.requestorReadRate::.cpu.data 151458740.004371315241                       # Per-requestor bytes read from memory rate (Bytes/sec)
system.mem_ctrl.requestorReadAccesses::.cpu.inst          558                       # Per-requestor read serviced memory accesses
system.mem_ctrl.requestorReadAccesses::.cpu.data         1256                       # Per-requestor read serviced memory accesses
system.mem_ctrl.requestorReadTotalLat::.cpu.inst     13223946                       # Per-requestor read total memory access latency
system.mem_ctrl.requestorReadTotalLat::.cpu.data     28231198                       # Per-requestor read total memory access latency
system.mem_ctrl.requestorReadAvgLat::.cpu.inst     23698.83                       # Per-requestor read average memory access latency
system.mem_ctrl.requestorReadAvgLat::.cpu.data     22477.07                       # Per-requestor read average memory access latency
system.mem_ctrl.dram.bytes_read::.cpu.inst        35712                       # Number of bytes read from this memory
system.mem_ctrl.dram.bytes_read::.cpu.data        80384                       # Number of bytes read from this memory
system.mem_ctrl.dram.bytes_read::total         116096                       # Number of bytes read from this memory
system.mem_ctrl.dram.bytes_inst_read::.cpu.inst        35712                       # Number of instructions bytes read from this memory
system.mem_ctrl.dram.bytes_inst_read::total        35712                       # Number of instructions bytes read from this memory
system.mem_ctrl.dram.num_reads::.cpu.inst          558                       # Number of read requests responded to by this memory
system.mem_ctrl.dram.num_reads::.cpu.data         1256                       # Number of read requests responded to by this memory
system.mem_ctrl.dram.num_reads::total            1814                       # Number of read requests responded to by this memory
system.mem_ctrl.dram.bw_read::.cpu.inst      67288198                       # Total read bandwidth from this memory (bytes/s)
system.mem_ctrl.dram.bw_read::.cpu.data     151458740                       # Total read bandwidth from this memory (bytes/s)
system.mem_ctrl.dram.bw_read::total         218746938                       # Total read bandwidth from this memory (bytes/s)
system.mem_ctrl.dram.bw_inst_read::.cpu.inst     67288198                       # Instruction read bandwidth from this memory (bytes/s)
system.mem_ctrl.dram.bw_inst_read::total     67288198                       # Instruction read bandwidth from this memory (bytes/s)
system.mem_ctrl.dram.bw_total::.cpu.inst     67288198                       # Total bandwidth to/from this memory (bytes/s)
system.mem_ctrl.dram.bw_total::.cpu.data    151458740                       # Total bandwidth to/from this memory (bytes/s)
system.mem_ctrl.dram.bw_total::total        218746938                       # Total bandwidth to/from this memory (bytes/s)
system.mem_ctrl.dram.readBursts                  1814                       # Number of DRAM read bursts
system.mem_ctrl.dram.writeBursts                    0                       # Number of DRAM write bursts
system.mem_ctrl.dram.perBankRdBursts::0           102                       # Per bank write bursts
system.mem_ctrl.dram.perBankRdBursts::1           183                       # Per bank write bursts
system.mem_ctrl.dram.perBankRdBursts::2           144                       # Per bank write bursts
system.mem_ctrl.dram.perBankRdBursts::3           138                       # Per bank write bursts
system.mem_ctrl.dram.perBankRdBursts::4           139                       # Per bank write bursts
system.mem_ctrl.dram.perBankRdBursts::5           145                       # Per bank write bursts
system.mem_ctrl.dram.perBankRdBursts::6           201                       # Per bank write bursts
system.mem_ctrl.dram.perBankRdBursts::7           166                       # Per bank write bursts
system.mem_ctrl.dram.perBankRdBursts::8           164                       # Per bank write bursts
system.mem_ctrl.dram.perBankRdBursts::9            49                       # Per bank write bursts
system.mem_ctrl.dram.perBankRdBursts::10           29                       # Per bank write bursts
system.mem_ctrl.dram.perBankRdBursts::11           89                       # Per bank write bursts
system.mem_ctrl.dram.perBankRdBursts::12           67                       # Per bank write bursts
system.mem_ctrl.dram.perBankRdBursts::13            8                       # Per bank write bursts
system.mem_ctrl.dram.perBankRdBursts::14           76                       # Per bank write bursts
system.mem_ctrl.dram.perBankRdBursts::15          114                       # Per bank write bursts
system.mem_ctrl.dram.perBankWrBursts::0             0                       # Per bank write bursts
system.mem_ctrl.dram.perBankWrBursts::1             0                       # Per bank write bursts
system.mem_ctrl.dram.perBankWrBursts::2             0                       # Per bank write bursts
system.mem_ctrl.dram.perBankWrBursts::3             0                       # Per bank write bursts
system.mem_ctrl.dram.perBankWrBursts::4             0                       # Per bank write bursts
system.mem_ctrl.dram.perBankWrBursts::5             0                       # Per bank write bursts
system.mem_ctrl.dram.perBankWrBursts::6             0                       # Per bank write bursts
system.mem_ctrl.dram.perBankWrBursts::7             0                       # Per bank write bursts
system.mem_ctrl.dram.perBankWrBursts::8             0                       # Per bank write bursts
system.mem_ctrl.dram.perBankWrBursts::9             0                       # Per bank write bursts
system.mem_ctrl.dram.perBankWrBursts::10            0                       # Per bank write bursts
system.mem_ctrl.dram.perBankWrBursts::11            0                       # Per bank write bursts
system.mem_ctrl.dram.perBankWrBursts::12            0                       # Per bank write bursts
system.mem_ctrl.dram.perBankWrBursts::13            0                       # Per bank write bursts
system.mem_ctrl.dram.perBankWrBursts::14            0                       # Per bank write bursts
system.mem_ctrl.dram.perBankWrBursts::15            0                       # Per bank write bursts
system.mem_ctrl.dram.totQLat                 10903756                       # Total ticks spent queuing
system.mem_ctrl.dram.totBusLat                6806128                       # Total ticks spent in databus transfers
system.mem_ctrl.dram.totMemAccLat            41455144                       # Total ticks spent from burst creation until serviced by the DRAM
system.mem_ctrl.dram.avgQLat                  6010.89                       # Average queueing delay per DRAM burst
system.mem_ctrl.dram.avgBusLat                3752.00                       # Average bus latency per DRAM burst
system.mem_ctrl.dram.avgMemAccLat            22852.89                       # Average memory access latency per DRAM burst
system.mem_ctrl.dram.readRowHits                 1563                       # Number of row buffer hits during reads
system.mem_ctrl.dram.writeRowHits                   0                       # Number of row buffer hits during writes
system.mem_ctrl.dram.readRowHitRate             86.16                       # Row buffer hit rate for reads
system.mem_ctrl.dram.writeRowHitRate              nan                       # Row buffer hit rate for writes
system.mem_ctrl.dram.bytesPerActivate::samples          248                       # Bytes accessed per row activation
system.mem_ctrl.dram.bytesPerActivate::mean   464.774194                       # Bytes accessed per row activation
system.mem_ctrl.dram.bytesPerActivate::gmean   285.953055                       # Bytes accessed per row activation
system.mem_ctrl.dram.bytesPerActivate::stdev   388.208276                       # Bytes accessed per row activation
system.mem_ctrl.dram.bytesPerActivate::0-127           55     22.18%     22.18% # Bytes accessed per row activation
system.mem_ctrl.dram.bytesPerActivate::128-255           52     20.97%     43.15% # Bytes accessed per row activation
system.mem_ctrl.dram.bytesPerActivate::256-383           27     10.89%     54.03% # Bytes accessed per row activation
system.mem_ctrl.dram.bytesPerActivate::384-511           15      6.05%     60.08% # Bytes accessed per row activation
system.mem_ctrl.dram.bytesPerActivate::512-639            8      3.23%     63.31% # Bytes accessed per row activation
system.mem_ctrl.dram.bytesPerActivate::640-767            6      2.42%     65.73% # Bytes accessed per row activation
system.mem_ctrl.dram.bytesPerActivate::768-895           10      4.03%     69.76% # Bytes accessed per row activation
system.mem_ctrl.dram.bytesPerActivate::896-1023           42     16.94%     86.69% # Bytes accessed per row activation
system.mem_ctrl.dram.bytesPerActivate::1024-1151           33     13.31%    100.00% # Bytes accessed per row activation
system.mem_ctrl.dram.bytesPerActivate::total          248                       # Bytes accessed per row activation
system.mem_ctrl.dram.bytesRead                 116096                       # Total number of bytes read from DRAM
system.mem_ctrl.dram.bytesWritten                   0                       # Total number of bytes written to DRAM
system.mem_ctrl.dram.avgRdBW               218.746938                       # Average DRAM read bandwidth in MiBytes/s
system.mem_ctrl.dram.avgWrBW                        0                       # Average DRAM write bandwidth in MiBytes/s
system.mem_ctrl.dram.peakBW                  17057.00                       # Theoretical peak bandwidth in MiByte/s
system.mem_ctrl.dram.busUtil                     1.28                       # Data bus utilization in percentage
system.mem_ctrl.dram.busUtilRead                 1.28                       # Data bus utilization in percentage for reads
system.mem_ctrl.dram.busUtilWrite                0.00                       # Data bus utilization in percentage for writes
system.mem_ctrl.dram.pageHitRate                86.16                       # Row buffer hit rate, read and write combined
system.mem_ctrl.dram.power_state.pwrStateResidencyTicks::UNDEFINED    530732000                       # Cumulative time (in ticks) in various power states
system.mem_ctrl.dram.rank0.actEnergy     1548735.552000                       # Energy for activate commands per rank (pJ)
system.mem_ctrl.dram.rank0.preEnergy     759239.712000                       # Energy for precharge commands per rank (pJ)
system.mem_ctrl.dram.rank0.readEnergy    8061367.104000                       # Energy for read commands per rank (pJ)
system.mem_ctrl.dram.rank0.writeEnergy              0                       # Energy for write commands per rank (pJ)
system.mem_ctrl.dram.rank0.refreshEnergy 43833385.344000                       # Energy for refresh commands per rank (pJ)
system.mem_ctrl.dram.rank0.actBackEnergy 170489679.360000                       # Energy for active background per rank (pJ)
system.mem_ctrl.dram.rank0.preBackEnergy 92278950.456000                       # Energy for precharge background per rank (pJ)
system.mem_ctrl.dram.rank0.actPowerDownEnergy            0                       # Energy for active power-down per rank (pJ)
system.mem_ctrl.dram.rank0.prePowerDownEnergy            0                       # Energy for precharge power-down per rank (pJ)
system.mem_ctrl.dram.rank0.selfRefreshEnergy            0                       # Energy for self refresh per rank (pJ)
system.mem_ctrl.dram.rank0.totalEnergy   316971357.528000                       # Total energy per rank (pJ)
system.mem_ctrl.dram.rank0.averagePower    597.234306                       # Core power per rank (mW)
system.mem_ctrl.dram.rank0.totalIdleTime            0                       # Total Idle time Per DRAM Rank
system.mem_ctrl.dram.rank0.pwrStateTime::IDLE    206392740                       # Time in different power states
system.mem_ctrl.dram.rank0.pwrStateTime::REF     17680000                       # Time in different power states
system.mem_ctrl.dram.rank0.pwrStateTime::SREF            0                       # Time in different power states
system.mem_ctrl.dram.rank0.pwrStateTime::PRE_PDN            0                       # Time in different power states
system.mem_ctrl.dram.rank0.pwrStateTime::ACT    306659260                       # Time in different power states
system.mem_ctrl.dram.rank0.pwrStateTime::ACT_PDN            0                       # Time in different power states
system.mem_ctrl.dram.rank1.actEnergy     1095704.064000                       # Energy for activate commands per rank (pJ)
system.mem_ctrl.dram.rank1.preEnergy     530427.744000                       # Energy for precharge commands per rank (pJ)
system.mem_ctrl.dram.rank1.readEnergy    3944642.688000                       # Energy for read commands per rank (pJ)
system.mem_ctrl.dram.rank1.writeEnergy              0                       # Energy for write commands per rank (pJ)
system.mem_ctrl.dram.rank1.refreshEnergy 43833385.344000                       # Energy for refresh commands per rank (pJ)
system.mem_ctrl.dram.rank1.actBackEnergy 82242054.048000                       # Energy for active background per rank (pJ)
system.mem_ctrl.dram.rank1.preBackEnergy 166487180.832000                       # Energy for precharge background per rank (pJ)
system.mem_ctrl.dram.rank1.actPowerDownEnergy            0                       # Energy for active power-down per rank (pJ)
system.mem_ctrl.dram.rank1.prePowerDownEnergy            0                       # Energy for precharge power-down per rank (pJ)
system.mem_ctrl.dram.rank1.selfRefreshEnergy            0                       # Energy for self refresh per rank (pJ)
system.mem_ctrl.dram.rank1.totalEnergy   298133394.720000                       # Total energy per rank (pJ)
system.mem_ctrl.dram.rank1.averagePower    561.740002                       # Core power per rank (mW)
system.mem_ctrl.dram.rank1.totalIdleTime            0                       # Total Idle time Per DRAM Rank
system.mem_ctrl.dram.rank1.pwrStateTime::IDLE    373844410                       # Time in different power states
system.mem_ctrl.dram.rank1.pwrStateTime::REF     17680000                       # Time in different power states
system.mem_ctrl.dram.rank1.pwrStateTime::SREF            0                       # Time in different power states
system.mem_ctrl.dram.rank1.pwrStateTime::PRE_PDN            0                       # Time in different power states
system.mem_ctrl.dram.rank1.pwrStateTime::ACT    139207590                       # Time in different power states
system.mem_ctrl.dram.rank1.pwrStateTime::ACT_PDN            0                       # Time in different power states
system.mem_ctrl.power_state.pwrStateResidencyTicks::UNDEFINED    530732000                       # Cumulative time (in ticks) in various power states
system.membus.trans_dist::ReadResp               1694                       # Transaction distribution
system.membus.trans_dist::ReadExReq               120                       # Transaction distribution
system.membus.trans_dist::ReadExResp              120                       # Transaction distribution
system.membus.trans_dist::ReadSharedReq          1694                       # Transaction distribution
system.membus.pkt_count_system.l2cache.mem_side_port::system.mem_ctrl.port         3628                       # Packet count per connected requestor and responder (bytes)
system.membus.pkt_count_system.l2cache.mem_side_port::total         3628                       # Packet count per connected requestor and responder (bytes)
system.membus.pkt_count::total                   3628                       # Packet count per connected requestor and responder (bytes)
system.membus.pkt_size_system.l2cache.mem_side_port::system.mem_ctrl.port       116096                       # Cumulative packet size per connected requestor and responder (bytes)
system.membus.pkt_size_system.l2cache.mem_side_port::total       116096                       # Cumulative packet size per connected requestor and responder (bytes)
system.membus.pkt_size::total                  116096                       # Cumulative packet size per connected requestor and responder (bytes)
system.membus.snoops                                0                       # Total snoops (count)
system.membus.snoopTraffic                          0                       # Total snoop traffic (bytes)
system.membus.snoop_fanout::samples              1814                       # Request fanout histogram
system.membus.snoop_fanout::mean                    0                       # Request fanout histogram
system.membus.snoop_fanout::stdev                   0                       # Request fanout histogram
system.membus.snoop_fanout::underflows              0      0.00%      0.00% # Request fanout histogram
system.membus.snoop_fanout::0                    1814    100.00%    100.00% # Request fanout histogram
system.membus.snoop_fanout::1                       0      0.00%    100.00% # Request fanout histogram
system.membus.snoop_fanout::overflows               0      0.00%    100.00% # Request fanout histogram
system.membus.snoop_fanout::min_value               0                       # Request fanout histogram
system.membus.snoop_fanout::max_value               0                       # Request fanout histogram
system.membus.snoop_fanout::total                1814                       # Request fanout histogram
system.membus.power_state.pwrStateResidencyTicks::UNDEFINED    530732000                       # Cumulative time (in ticks) in various power states
system.membus.reqLayer0.occupancy             1814000                       # Layer occupancy (ticks)
system.membus.reqLayer0.utilization               0.3                       # Layer utilization (%)
system.membus.respLayer0.occupancy            3990856                       # Layer occupancy (ticks)
system.membus.respLayer0.utilization              0.8                       # Layer utilization (%)

---------- End Simulation Statistics   ----------
