gem5 Simulator System.  http://gem5.org
gem5 is copyrighted software; use the --copyright option for details.

gem5 version 20.1.0.2
gem5 compiled Dec 10 2021 07:18:28
gem5 started Dec 10 2021 07:23:07
gem5 executing on ARCH-750, pid 1094368
command line: /data/home/ycc32/450_project/gem5/build/X86/gem5.opt --debug-flags=HWPrefetch -re --outdir=/data/home/ycc32/450_project/gem5/results/X86/run_micro/EI/Minor4/Slow/DDR3_2133_8x8/1GHz gem5-config/run_micro.py Minor4 Slow microbenchmark/EI/bench.X86 DDR3_2133_8x8 --clock=1GHz

1GHz CPU speed and DRAM = DDR3_2133_8x8
system.py: init L2 cache with size 1MB
Global frequency set at 1000000000000 ticks per second
   1000: system.cpu.l1i.prefetcher: Hello World from HMM model
  79000: system.cpu.l1i.prefetcher: Hello World from HMM model
  82000: system.cpu.l1d.prefetcher: Hello World from HMM model
 143000: system.cpu.l1i.prefetcher: Hello World from HMM model
 167000: system.cpu.l1d.prefetcher: Hello World from HMM model
 207000: system.cpu.l1i.prefetcher: Hello World from HMM model
 298000: system.cpu.l1i.prefetcher: Hello World from HMM model
 318000: system.cpu.l1d.prefetcher: Hello World from HMM model
 321000: system.cpu.l1d.prefetcher: Hello World from HMM model
 362000: system.cpu.l1i.prefetcher: Hello World from HMM model
 408000: system.cpu.l1d.prefetcher: Hello World from HMM model
 459000: system.cpu.l1i.prefetcher: Hello World from HMM model
 463000: system.cpu.l1d.prefetcher: Hello World from HMM model
 555000: system.cpu.l1i.prefetcher: Hello World from HMM model
 653000: system.cpu.l1i.prefetcher: Hello World from HMM model
 657000: system.cpu.l1d.prefetcher: Hello World from HMM model
 660000: system.cpu.l1d.prefetcher: Hello World from HMM model
 717000: system.cpu.l1i.prefetcher: Hello World from HMM model
 781000: system.cpu.l1i.prefetcher: Hello World from HMM model
 858000: system.cpu.l1i.prefetcher: Hello World from HMM model
 865000: system.cpu.l1d.prefetcher: Hello World from HMM model
 871000: system.cpu.l1d.prefetcher: Hello World from HMM model
 922000: system.cpu.l1i.prefetcher: Hello World from HMM model
 960000: system.cpu.l1d.prefetcher: Hello World from HMM model
 986000: system.cpu.l1i.prefetcher: Hello World from HMM model
1025000: system.cpu.l1d.prefetcher: Hello World from HMM model
1050000: system.cpu.l1i.prefetcher: Hello World from HMM model
1089000: system.cpu.l1d.prefetcher: Hello World from HMM model
1152000: system.cpu.l1d.prefetcher: Hello World from HMM model
1222000: system.cpu.l1d.prefetcher: Hello World from HMM model
1226000: system.cpu.l1d.prefetcher: Hello World from HMM model
1228000: system.cpu.l1i.prefetcher: Hello World from HMM model
1285000: system.cpu.l1d.prefetcher: Hello World from HMM model
1379000: system.cpu.l1i.prefetcher: Hello World from HMM model
1387000: system.cpu.l1d.prefetcher: Hello World from HMM model
1466000: system.cpu.l1i.prefetcher: Hello World from HMM model
1530000: system.cpu.l1i.prefetcher: Hello World from HMM model
1539000: system.cpu.l1d.prefetcher: Hello World from HMM model
1594000: system.cpu.l1i.prefetcher: Hello World from HMM model
1667000: system.cpu.l1d.prefetcher: Hello World from HMM model
1733000: system.cpu.l1i.prefetcher: Hello World from HMM model
1797000: system.cpu.l1i.prefetcher: Hello World from HMM model
1876000: system.cpu.l1i.prefetcher: Hello World from HMM model
1940000: system.cpu.l1i.prefetcher: Hello World from HMM model
2004000: system.cpu.l1i.prefetcher: Hello World from HMM model
2091000: system.cpu.l1i.prefetcher: Hello World from HMM model
2174000: system.cpu.l1i.prefetcher: Hello World from HMM model
2177000: system.cpu.l1d.prefetcher: Hello World from HMM model
2251000: system.cpu.l1i.prefetcher: Hello World from HMM model
2342000: system.cpu.l1i.prefetcher: Hello World from HMM model
2495000: system.cpu.l1d.prefetcher: Hello World from HMM model
2686000: system.cpu.l1d.prefetcher: Hello World from HMM model
2884000: system.cpu.l1d.prefetcher: Hello World from HMM model
3011000: system.cpu.l1i.prefetcher: Hello World from HMM model
3222000: system.cpu.l1i.prefetcher: Hello World from HMM model
3313000: system.cpu.l1i.prefetcher: Hello World from HMM model
3377000: system.cpu.l1i.prefetcher: Hello World from HMM model
3455000: system.cpu.l1i.prefetcher: Hello World from HMM model
3532000: system.cpu.l1i.prefetcher: Hello World from HMM model
3596000: system.cpu.l1i.prefetcher: Hello World from HMM model
3660000: system.cpu.l1i.prefetcher: Hello World from HMM model
3724000: system.cpu.l1i.prefetcher: Hello World from HMM model
3816000: system.cpu.l1d.prefetcher: Hello World from HMM model
3818000: system.cpu.l1i.prefetcher: Hello World from HMM model
3884000: system.cpu.l1i.prefetcher: Hello World from HMM model
3948000: system.cpu.l1i.prefetcher: Hello World from HMM model
4012000: system.cpu.l1i.prefetcher: Hello World from HMM model
4076000: system.cpu.l1i.prefetcher: Hello World from HMM model
4140000: system.cpu.l1i.prefetcher: Hello World from HMM model
4219000: system.cpu.l1i.prefetcher: Hello World from HMM model
4310000: system.cpu.l1i.prefetcher: Hello World from HMM model
4376000: system.cpu.l1i.prefetcher: Hello World from HMM model
4440000: system.cpu.l1i.prefetcher: Hello World from HMM model
4508000: system.cpu.l1i.prefetcher: Hello World from HMM model
4576000: system.cpu.l1i.prefetcher: Hello World from HMM model
4640000: system.cpu.l1i.prefetcher: Hello World from HMM model
4704000: system.cpu.l1i.prefetcher: Hello World from HMM model
4781000: system.cpu.l1i.prefetcher: Hello World from HMM model
4886000: system.cpu.l1i.prefetcher: Hello World from HMM model
4950000: system.cpu.l1i.prefetcher: Hello World from HMM model
4958000: system.cpu.l1d.prefetcher: Hello World from HMM model
5020000: system.cpu.l1d.prefetcher: Hello World from HMM model
5152000: system.cpu.l1d.prefetcher: Hello World from HMM model
5242000: system.cpu.l1d.prefetcher: Hello World from HMM model
5330000: system.cpu.l1d.prefetcher: Hello World from HMM model
5347000: system.cpu.l1d.prefetcher: Hello World from HMM model
5440000: system.cpu.l1d.prefetcher: Hello World from HMM model
5500000: system.cpu.l1d.prefetcher: Hello World from HMM model
5646000: system.cpu.l1d.prefetcher: Hello World from HMM model
5847000: system.cpu.l1d.prefetcher: Hello World from HMM model
5861000: system.cpu.l1i.prefetcher: Hello World from HMM model
5964000: system.cpu.l1i.prefetcher: Hello World from HMM model
6055000: system.cpu.l1i.prefetcher: Hello World from HMM model
6119000: system.cpu.l1i.prefetcher: Hello World from HMM model
6192000: system.cpu.l1d.prefetcher: Hello World from HMM model
6205000: system.cpu.l1d.prefetcher: Hello World from HMM model
6297000: system.cpu.l1i.prefetcher: Hello World from HMM model
6388000: system.cpu.l1i.prefetcher: Hello World from HMM model
6452000: system.cpu.l1i.prefetcher: Hello World from HMM model
6544000: system.cpu.l1i.prefetcher: Hello World from HMM model
6621000: system.cpu.l1i.prefetcher: Hello World from HMM model
6713000: system.cpu.l1i.prefetcher: Hello World from HMM model
6803000: system.cpu.l1d.prefetcher: Hello World from HMM model
6804000: system.cpu.l1d.prefetcher: Hello World from HMM model
6909000: system.cpu.l1i.prefetcher: Hello World from HMM model
7000000: system.cpu.l1i.prefetcher: Hello World from HMM model
7064000: system.cpu.l1i.prefetcher: Hello World from HMM model
7132000: system.cpu.l1i.prefetcher: Hello World from HMM model
7198000: system.cpu.l1i.prefetcher: Hello World from HMM model
7290000: system.cpu.l1i.prefetcher: Hello World from HMM model
7354000: system.cpu.l1i.prefetcher: Hello World from HMM model
7418000: system.cpu.l1i.prefetcher: Hello World from HMM model
7486000: system.cpu.l1i.prefetcher: Hello World from HMM model
7582000: system.cpu.l1i.prefetcher: Hello World from HMM model
7683000: system.cpu.l1d.prefetcher: Hello World from HMM model
7684000: system.cpu.l1d.prefetcher: Hello World from HMM model
7788000: system.cpu.l1i.prefetcher: Hello World from HMM model
8125000: system.cpu.l1i.prefetcher: Hello World from HMM model
8189000: system.cpu.l1i.prefetcher: Hello World from HMM model
8281000: system.cpu.l1i.prefetcher: Hello World from HMM model
8358000: system.cpu.l1i.prefetcher: Hello World from HMM model
8469000: system.cpu.l1d.prefetcher: Hello World from HMM model
8547000: system.cpu.l1i.prefetcher: Hello World from HMM model
8672000: system.cpu.l1i.prefetcher: Hello World from HMM model
8736000: system.cpu.l1i.prefetcher: Hello World from HMM model
8804000: system.cpu.l1i.prefetcher: Hello World from HMM model
8896000: system.cpu.l1i.prefetcher: Hello World from HMM model
8960000: system.cpu.l1i.prefetcher: Hello World from HMM model
9024000: system.cpu.l1i.prefetcher: Hello World from HMM model
9097000: system.cpu.l1d.prefetcher: Hello World from HMM model
9098000: system.cpu.l1d.prefetcher: Hello World from HMM model
9199000: system.cpu.l1i.prefetcher: Hello World from HMM model
9294000: system.cpu.l1i.prefetcher: Hello World from HMM model
9386000: system.cpu.l1i.prefetcher: Hello World from HMM model
9461000: system.cpu.l1i.prefetcher: Hello World from HMM model
9553000: system.cpu.l1i.prefetcher: Hello World from HMM model
9630000: system.cpu.l1i.prefetcher: Hello World from HMM model
9694000: system.cpu.l1i.prefetcher: Hello World from HMM model
9768000: system.cpu.l1d.prefetcher: Hello World from HMM model
9769000: system.cpu.l1d.prefetcher: Hello World from HMM model
9873000: system.cpu.l1i.prefetcher: Hello World from HMM model
9937000: system.cpu.l1i.prefetcher: Hello World from HMM model
10001000: system.cpu.l1i.prefetcher: Hello World from HMM model
10147000: system.cpu.l1d.prefetcher: Hello World from HMM model
10212000: system.cpu.l1i.prefetcher: Hello World from HMM model
10276000: system.cpu.l1i.prefetcher: Hello World from HMM model
10340000: system.cpu.l1i.prefetcher: Hello World from HMM model
10432000: system.cpu.l1i.prefetcher: Hello World from HMM model
10496000: system.cpu.l1i.prefetcher: Hello World from HMM model
10560000: system.cpu.l1i.prefetcher: Hello World from HMM model
10656000: system.cpu.l1i.prefetcher: Hello World from HMM model
10724000: system.cpu.l1i.prefetcher: Hello World from HMM model
10815000: system.cpu.l1d.prefetcher: Hello World from HMM model
10816000: system.cpu.l1d.prefetcher: Hello World from HMM model
10916000: system.cpu.l1i.prefetcher: Hello World from HMM model
11013000: system.cpu.l1i.prefetcher: Hello World from HMM model
11154000: system.cpu.l1i.prefetcher: Hello World from HMM model
11247000: system.cpu.l1d.prefetcher: Hello World from HMM model
11248000: system.cpu.l1d.prefetcher: Hello World from HMM model
11372000: system.cpu.l1i.prefetcher: Hello World from HMM model
11463000: system.cpu.l1i.prefetcher: Hello World from HMM model
11527000: system.cpu.l1i.prefetcher: Hello World from HMM model
11591000: system.cpu.l1i.prefetcher: Hello World from HMM model
11616000: system.cpu.l1d.prefetcher: Hello World from HMM model
11655000: system.cpu.l1i.prefetcher: Hello World from HMM model
11722000: system.cpu.l1i.prefetcher: Hello World from HMM model
11723000: system.cpu.l1d.prefetcher: Hello World from HMM model
11786000: system.cpu.l1i.prefetcher: Hello World from HMM model
11862000: system.cpu.l1d.prefetcher: Hello World from HMM model
11863000: system.cpu.l1d.prefetcher: Hello World from HMM model
11864000: system.cpu.l1i.prefetcher: Hello World from HMM model
11942000: system.cpu.l1d.prefetcher: Hello World from HMM model
11943000: system.cpu.l1d.prefetcher: Hello World from HMM model
12013000: system.cpu.l1d.prefetcher: Hello World from HMM model
12014000: system.cpu.l1d.prefetcher: Hello World from HMM model
12084000: system.cpu.l1d.prefetcher: Hello World from HMM model
12085000: system.cpu.l1d.prefetcher: Hello World from HMM model
12155000: system.cpu.l1d.prefetcher: Hello World from HMM model
12156000: system.cpu.l1d.prefetcher: Hello World from HMM model
12226000: system.cpu.l1d.prefetcher: Hello World from HMM model
12293000: system.cpu.l1d.prefetcher: Hello World from HMM model
12456000: system.cpu.l1i.prefetcher: Hello World from HMM model
12520000: system.cpu.l1i.prefetcher: Hello World from HMM model
12597000: system.cpu.l1i.prefetcher: Hello World from HMM model
12604000: system.cpu.l1d.prefetcher: Hello World from HMM model
12608000: system.cpu.l1d.prefetcher: Hello World from HMM model
12661000: system.cpu.l1i.prefetcher: Hello World from HMM model
12729000: system.cpu.l1i.prefetcher: Hello World from HMM model
12793000: system.cpu.l1i.prefetcher: Hello World from HMM model
12857000: system.cpu.l1i.prefetcher: Hello World from HMM model
12925000: system.cpu.l1i.prefetcher: Hello World from HMM model
12999000: system.cpu.l1i.prefetcher: Hello World from HMM model
13114000: system.cpu.l1i.prefetcher: Hello World from HMM model
13187000: system.cpu.l1i.prefetcher: Hello World from HMM model
13260000: system.cpu.l1d.prefetcher: Hello World from HMM model
13314000: system.cpu.l1i.prefetcher: Hello World from HMM model
13341000: system.cpu.l1d.prefetcher: Hello World from HMM model
13342000: system.cpu.l1d.prefetcher: Hello World from HMM model
13405000: system.cpu.l1i.prefetcher: Hello World from HMM model
13406000: system.cpu.l1d.prefetcher: Hello World from HMM model
13496000: system.cpu.l1i.prefetcher: Hello World from HMM model
13560000: system.cpu.l1i.prefetcher: Hello World from HMM model
13651000: system.cpu.l1i.prefetcher: Hello World from HMM model
13660000: system.cpu.l1d.prefetcher: Hello World from HMM model
13661000: system.cpu.l1d.prefetcher: Hello World from HMM model
13715000: system.cpu.l1i.prefetcher: Hello World from HMM model
13784000: system.cpu.l1i.prefetcher: Hello World from HMM model
13785000: system.cpu.l1d.prefetcher: Hello World from HMM model
13786000: system.cpu.l1d.prefetcher: Hello World from HMM model
13894000: system.cpu.l1i.prefetcher: Hello World from HMM model
13897000: system.cpu.l1d.prefetcher: Hello World from HMM model
13900000: system.cpu.l1d.prefetcher: Hello World from HMM model
13994000: system.cpu.l1i.prefetcher: Hello World from HMM model
14072000: system.cpu.l1d.prefetcher: Hello World from HMM model
14081000: system.cpu.l1d.prefetcher: Hello World from HMM model
14081000: system.cpu.l1i.prefetcher: Hello World from HMM model
14165000: system.cpu.l1d.prefetcher: Hello World from HMM model
14214000: system.cpu.l1i.prefetcher: Hello World from HMM model
14282000: system.cpu.l1i.prefetcher: Hello World from HMM model
14288000: system.cpu.l1d.prefetcher: Hello World from HMM model
14346000: system.cpu.l1i.prefetcher: Hello World from HMM model
14410000: system.cpu.l1i.prefetcher: Hello World from HMM model
14474000: system.cpu.l1i.prefetcher: Hello World from HMM model
14565000: system.cpu.l1i.prefetcher: Hello World from HMM model
14629000: system.cpu.l1i.prefetcher: Hello World from HMM model
14636000: system.cpu.l1d.prefetcher: Hello World from HMM model
14693000: system.cpu.l1i.prefetcher: Hello World from HMM model
14757000: system.cpu.l1i.prefetcher: Hello World from HMM model
14826000: system.cpu.l1i.prefetcher: Hello World from HMM model
14895000: system.cpu.l1i.prefetcher: Hello World from HMM model
14898000: system.cpu.l1d.prefetcher: Hello World from HMM model
14965000: system.cpu.l1i.prefetcher: Hello World from HMM model
15133000: system.cpu.l1i.prefetcher: Hello World from HMM model
15223000: system.cpu.l1i.prefetcher: Hello World from HMM model
15320000: system.cpu.l1i.prefetcher: Hello World from HMM model
15321000: system.cpu.l1d.prefetcher: Hello World from HMM model
15406000: system.cpu.l1i.prefetcher: Hello World from HMM model
15488000: system.cpu.l1i.prefetcher: Hello World from HMM model
15554000: system.cpu.l1i.prefetcher: Hello World from HMM model
15559000: system.cpu.l1d.prefetcher: Hello World from HMM model
15618000: system.cpu.l1i.prefetcher: Hello World from HMM model
15964000: system.cpu.l1i.prefetcher: Hello World from HMM model
16041000: system.cpu.l1i.prefetcher: Hello World from HMM model
16048000: system.cpu.l1d.prefetcher: Hello World from HMM model
16051000: system.cpu.l1d.prefetcher: Hello World from HMM model
16109000: system.cpu.l1i.prefetcher: Hello World from HMM model
16124000: system.cpu.l1d.prefetcher: Hello World from HMM model
16173000: system.cpu.l1i.prefetcher: Hello World from HMM model
16256000: system.cpu.l1i.prefetcher: Hello World from HMM model
16340000: system.cpu.l1d.prefetcher: Hello World from HMM model
16577000: system.cpu.l1i.prefetcher: Hello World from HMM model
16641000: system.cpu.l1i.prefetcher: Hello World from HMM model
16718000: system.cpu.l1i.prefetcher: Hello World from HMM model
16724000: system.cpu.l1d.prefetcher: Hello World from HMM model
16782000: system.cpu.l1i.prefetcher: Hello World from HMM model
16873000: system.cpu.l1i.prefetcher: Hello World from HMM model
16937000: system.cpu.l1i.prefetcher: Hello World from HMM model
17001000: system.cpu.l1i.prefetcher: Hello World from HMM model
17065000: system.cpu.l1i.prefetcher: Hello World from HMM model
17070000: system.cpu.l1d.prefetcher: Hello World from HMM model
17129000: system.cpu.l1i.prefetcher: Hello World from HMM model
17220000: system.cpu.l1i.prefetcher: Hello World from HMM model
17284000: system.cpu.l1i.prefetcher: Hello World from HMM model
17290000: system.cpu.l1d.prefetcher: Hello World from HMM model
17348000: system.cpu.l1i.prefetcher: Hello World from HMM model
17412000: system.cpu.l1i.prefetcher: Hello World from HMM model
17476000: system.cpu.l1i.prefetcher: Hello World from HMM model
17484000: system.cpu.l1d.prefetcher: Hello World from HMM model
17493000: system.cpu.l1d.prefetcher: Hello World from HMM model
17544000: system.cpu.l1i.prefetcher: Hello World from HMM model
17559000: system.cpu.l1d.prefetcher: Hello World from HMM model
17641000: system.cpu.l1i.prefetcher: Hello World from HMM model
17718000: system.cpu.l1d.prefetcher: Hello World from HMM model
17719000: system.cpu.l1d.prefetcher: Hello World from HMM model
17849000: system.cpu.l1d.prefetcher: Hello World from HMM model
17850000: system.cpu.l1d.prefetcher: Hello World from HMM model
17953000: system.cpu.l1d.prefetcher: Hello World from HMM model
17954000: system.cpu.l1d.prefetcher: Hello World from HMM model
18057000: system.cpu.l1d.prefetcher: Hello World from HMM model
18058000: system.cpu.l1d.prefetcher: Hello World from HMM model
18161000: system.cpu.l1d.prefetcher: Hello World from HMM model
18162000: system.cpu.l1d.prefetcher: Hello World from HMM model
18265000: system.cpu.l1d.prefetcher: Hello World from HMM model
18266000: system.cpu.l1d.prefetcher: Hello World from HMM model
18369000: system.cpu.l1d.prefetcher: Hello World from HMM model
18370000: system.cpu.l1d.prefetcher: Hello World from HMM model
18473000: system.cpu.l1d.prefetcher: Hello World from HMM model
18474000: system.cpu.l1d.prefetcher: Hello World from HMM model
18577000: system.cpu.l1d.prefetcher: Hello World from HMM model
18578000: system.cpu.l1d.prefetcher: Hello World from HMM model
18681000: system.cpu.l1d.prefetcher: Hello World from HMM model
18682000: system.cpu.l1d.prefetcher: Hello World from HMM model
18785000: system.cpu.l1d.prefetcher: Hello World from HMM model
18786000: system.cpu.l1d.prefetcher: Hello World from HMM model
18889000: system.cpu.l1d.prefetcher: Hello World from HMM model
18890000: system.cpu.l1d.prefetcher: Hello World from HMM model
18993000: system.cpu.l1d.prefetcher: Hello World from HMM model
18994000: system.cpu.l1d.prefetcher: Hello World from HMM model
19097000: system.cpu.l1d.prefetcher: Hello World from HMM model
19098000: system.cpu.l1d.prefetcher: Hello World from HMM model
19201000: system.cpu.l1d.prefetcher: Hello World from HMM model
19202000: system.cpu.l1d.prefetcher: Hello World from HMM model
19305000: system.cpu.l1d.prefetcher: Hello World from HMM model
19306000: system.cpu.l1d.prefetcher: Hello World from HMM model
19409000: system.cpu.l1d.prefetcher: Hello World from HMM model
19410000: system.cpu.l1d.prefetcher: Hello World from HMM model
19526000: system.cpu.l1d.prefetcher: Hello World from HMM model
19527000: system.cpu.l1d.prefetcher: Hello World from HMM model
19630000: system.cpu.l1d.prefetcher: Hello World from HMM model
19631000: system.cpu.l1d.prefetcher: Hello World from HMM model
19734000: system.cpu.l1d.prefetcher: Hello World from HMM model
19735000: system.cpu.l1d.prefetcher: Hello World from HMM model
19838000: system.cpu.l1d.prefetcher: Hello World from HMM model
19839000: system.cpu.l1d.prefetcher: Hello World from HMM model
19942000: system.cpu.l1d.prefetcher: Hello World from HMM model
19943000: system.cpu.l1d.prefetcher: Hello World from HMM model
20046000: system.cpu.l1d.prefetcher: Hello World from HMM model
20047000: system.cpu.l1d.prefetcher: Hello World from HMM model
20150000: system.cpu.l1d.prefetcher: Hello World from HMM model
20151000: system.cpu.l1d.prefetcher: Hello World from HMM model
20254000: system.cpu.l1d.prefetcher: Hello World from HMM model
20255000: system.cpu.l1d.prefetcher: Hello World from HMM model
20358000: system.cpu.l1d.prefetcher: Hello World from HMM model
20359000: system.cpu.l1d.prefetcher: Hello World from HMM model
20462000: system.cpu.l1d.prefetcher: Hello World from HMM model
20463000: system.cpu.l1d.prefetcher: Hello World from HMM model
20566000: system.cpu.l1d.prefetcher: Hello World from HMM model
20567000: system.cpu.l1d.prefetcher: Hello World from HMM model
20670000: system.cpu.l1d.prefetcher: Hello World from HMM model
20671000: system.cpu.l1d.prefetcher: Hello World from HMM model
20774000: system.cpu.l1d.prefetcher: Hello World from HMM model
20775000: system.cpu.l1d.prefetcher: Hello World from HMM model
20878000: system.cpu.l1d.prefetcher: Hello World from HMM model
20879000: system.cpu.l1d.prefetcher: Hello World from HMM model
20973000: system.cpu.l1i.prefetcher: Hello World from HMM model
21074000: system.cpu.l1d.prefetcher: Hello World from HMM model
21172000: system.cpu.l1d.prefetcher: Hello World from HMM model
21276000: system.cpu.l1d.prefetcher: Hello World from HMM model
21395000: system.cpu.l1i.prefetcher: Hello World from HMM model
21496000: system.cpu.l1d.prefetcher: Hello World from HMM model
21638000: system.cpu.l1d.prefetcher: Hello World from HMM model
21772000: system.cpu.l1d.prefetcher: Hello World from HMM model
21892000: system.cpu.l1i.prefetcher: Hello World from HMM model
21993000: system.cpu.l1d.prefetcher: Hello World from HMM model
22135000: system.cpu.l1d.prefetcher: Hello World from HMM model
22270000: system.cpu.l1d.prefetcher: Hello World from HMM model
22333000: system.cpu.l1d.prefetcher: Hello World from HMM model
22453000: system.cpu.l1i.prefetcher: Hello World from HMM model
22554000: system.cpu.l1d.prefetcher: Hello World from HMM model
22787000: system.cpu.l1d.prefetcher: Hello World from HMM model
22921000: system.cpu.l1d.prefetcher: Hello World from HMM model
22984000: system.cpu.l1d.prefetcher: Hello World from HMM model
23102000: system.cpu.l1i.prefetcher: Hello World from HMM model
23197000: system.cpu.l1i.prefetcher: Hello World from HMM model
23268000: system.cpu.l1i.prefetcher: Hello World from HMM model
23334000: system.cpu.l1i.prefetcher: Hello World from HMM model
23427000: system.cpu.l1i.prefetcher: Hello World from HMM model
23699000: system.cpu.l1i.prefetcher: Hello World from HMM model
23763000: system.cpu.l1i.prefetcher: Hello World from HMM model
23827000: system.cpu.l1i.prefetcher: Hello World from HMM model
23891000: system.cpu.l1i.prefetcher: Hello World from HMM model
23912000: system.cpu.l1d.prefetcher: Hello World from HMM model
23955000: system.cpu.l1i.prefetcher: Hello World from HMM model
24019000: system.cpu.l1i.prefetcher: Hello World from HMM model
24083000: system.cpu.l1i.prefetcher: Hello World from HMM model
24147000: system.cpu.l1i.prefetcher: Hello World from HMM model
24213000: system.cpu.l1i.prefetcher: Hello World from HMM model
24277000: system.cpu.l1i.prefetcher: Hello World from HMM model
24341000: system.cpu.l1i.prefetcher: Hello World from HMM model
24347000: system.cpu.l1d.prefetcher: Hello World from HMM model
24405000: system.cpu.l1i.prefetcher: Hello World from HMM model
24469000: system.cpu.l1i.prefetcher: Hello World from HMM model
24537000: system.cpu.l1i.prefetcher: Hello World from HMM model
24541000: system.cpu.l1d.prefetcher: Hello World from HMM model
24601000: system.cpu.l1i.prefetcher: Hello World from HMM model
24665000: system.cpu.l1i.prefetcher: Hello World from HMM model
24746000: system.cpu.l1i.prefetcher: Hello World from HMM model
24753000: system.cpu.l1d.prefetcher: Hello World from HMM model
24810000: system.cpu.l1i.prefetcher: Hello World from HMM model
24874000: system.cpu.l1i.prefetcher: Hello World from HMM model
24938000: system.cpu.l1i.prefetcher: Hello World from HMM model
25004000: system.cpu.l1i.prefetcher: Hello World from HMM model
25068000: system.cpu.l1i.prefetcher: Hello World from HMM model
25132000: system.cpu.l1i.prefetcher: Hello World from HMM model
25196000: system.cpu.l1i.prefetcher: Hello World from HMM model
25260000: system.cpu.l1i.prefetcher: Hello World from HMM model
25279000: system.cpu.l1d.prefetcher: Hello World from HMM model
25287000: system.cpu.l1d.prefetcher: Hello World from HMM model
25324000: system.cpu.l1i.prefetcher: Hello World from HMM model
25390000: system.cpu.l1i.prefetcher: Hello World from HMM model
25454000: system.cpu.l1i.prefetcher: Hello World from HMM model
25518000: system.cpu.l1i.prefetcher: Hello World from HMM model
25582000: system.cpu.l1i.prefetcher: Hello World from HMM model
25594000: system.cpu.l1d.prefetcher: Hello World from HMM model
25646000: system.cpu.l1i.prefetcher: Hello World from HMM model
25867000: system.cpu.l1i.prefetcher: Hello World from HMM model
25875000: system.cpu.l1d.prefetcher: Hello World from HMM model
25931000: system.cpu.l1i.prefetcher: Hello World from HMM model
25968000: system.cpu.l1d.prefetcher: Hello World from HMM model
26008000: system.cpu.l1i.prefetcher: Hello World from HMM model
26072000: system.cpu.l1i.prefetcher: Hello World from HMM model
26136000: system.cpu.l1i.prefetcher: Hello World from HMM model
26213000: system.cpu.l1i.prefetcher: Hello World from HMM model
26277000: system.cpu.l1i.prefetcher: Hello World from HMM model
26341000: system.cpu.l1i.prefetcher: Hello World from HMM model
26409000: system.cpu.l1i.prefetcher: Hello World from HMM model
26475000: system.cpu.l1i.prefetcher: Hello World from HMM model
26552000: system.cpu.l1i.prefetcher: Hello World from HMM model
26762000: system.cpu.l1i.prefetcher: Hello World from HMM model
26826000: system.cpu.l1i.prefetcher: Hello World from HMM model
26890000: system.cpu.l1i.prefetcher: Hello World from HMM model
26972000: system.cpu.l1d.prefetcher: Hello World from HMM model
26980000: system.cpu.l1i.prefetcher: Hello World from HMM model
27044000: system.cpu.l1i.prefetcher: Hello World from HMM model
27108000: system.cpu.l1i.prefetcher: Hello World from HMM model
27172000: system.cpu.l1i.prefetcher: Hello World from HMM model
27181000: system.cpu.l1d.prefetcher: Hello World from HMM model
27253000: system.cpu.l1i.prefetcher: Hello World from HMM model
27353000: system.cpu.l1i.prefetcher: Hello World from HMM model
27421000: system.cpu.l1i.prefetcher: Hello World from HMM model
27525000: system.cpu.l1d.prefetcher: Hello World from HMM model
27537000: system.cpu.l1d.prefetcher: Hello World from HMM model
27619000: system.cpu.l1d.prefetcher: Hello World from HMM model
27631000: system.cpu.l1d.prefetcher: Hello World from HMM model
27713000: system.cpu.l1d.prefetcher: Hello World from HMM model
27725000: system.cpu.l1d.prefetcher: Hello World from HMM model
27807000: system.cpu.l1d.prefetcher: Hello World from HMM model
27819000: system.cpu.l1d.prefetcher: Hello World from HMM model
27901000: system.cpu.l1d.prefetcher: Hello World from HMM model
27913000: system.cpu.l1d.prefetcher: Hello World from HMM model
27995000: system.cpu.l1d.prefetcher: Hello World from HMM model
28007000: system.cpu.l1d.prefetcher: Hello World from HMM model
28089000: system.cpu.l1d.prefetcher: Hello World from HMM model
28101000: system.cpu.l1d.prefetcher: Hello World from HMM model
28183000: system.cpu.l1d.prefetcher: Hello World from HMM model
28195000: system.cpu.l1d.prefetcher: Hello World from HMM model
28277000: system.cpu.l1d.prefetcher: Hello World from HMM model
28289000: system.cpu.l1d.prefetcher: Hello World from HMM model
28389000: system.cpu.l1i.prefetcher: Hello World from HMM model
28509000: system.cpu.l1i.prefetcher: Hello World from HMM model
28578000: system.cpu.l1i.prefetcher: Hello World from HMM model
28653000: system.cpu.l1i.prefetcher: Hello World from HMM model
28717000: system.cpu.l1i.prefetcher: Hello World from HMM model
28722000: system.cpu.l1d.prefetcher: Hello World from HMM model
28781000: system.cpu.l1i.prefetcher: Hello World from HMM model
28867000: system.cpu.l1i.prefetcher: Hello World from HMM model
28961000: system.cpu.l1i.prefetcher: Hello World from HMM model
29054000: system.cpu.l1i.prefetcher: Hello World from HMM model
29132000: system.cpu.l1i.prefetcher: Hello World from HMM model
29196000: system.cpu.l1i.prefetcher: Hello World from HMM model
29279000: system.cpu.l1d.prefetcher: Hello World from HMM model
29361000: system.cpu.l1i.prefetcher: Hello World from HMM model
29438000: system.cpu.l1i.prefetcher: Hello World from HMM model
29529000: system.cpu.l1i.prefetcher: Hello World from HMM model
29619000: system.cpu.l1i.prefetcher: Hello World from HMM model
29696000: system.cpu.l1i.prefetcher: Hello World from HMM model
29760000: system.cpu.l1i.prefetcher: Hello World from HMM model
29826000: system.cpu.l1i.prefetcher: Hello World from HMM model
29895000: system.cpu.l1i.prefetcher: Hello World from HMM model
29992000: system.cpu.l1d.prefetcher: Hello World from HMM model
29997000: system.cpu.l1i.prefetcher: Hello World from HMM model
29998000: system.cpu.l1d.prefetcher: Hello World from HMM model
30085000: system.cpu.l1d.prefetcher: Hello World from HMM model
30088000: system.cpu.l1i.prefetcher: Hello World from HMM model
30165000: system.cpu.l1i.prefetcher: Hello World from HMM model
30229000: system.cpu.l1i.prefetcher: Hello World from HMM model
30238000: system.cpu.l1d.prefetcher: Hello World from HMM model
30293000: system.cpu.l1i.prefetcher: Hello World from HMM model
30361000: system.cpu.l1i.prefetcher: Hello World from HMM model
30427000: system.cpu.l1i.prefetcher: Hello World from HMM model
30518000: system.cpu.l1i.prefetcher: Hello World from HMM model
30609000: system.cpu.l1i.prefetcher: Hello World from HMM model
30673000: system.cpu.l1i.prefetcher: Hello World from HMM model
30745000: system.cpu.l1i.prefetcher: Hello World from HMM model
30876000: system.cpu.l1i.prefetcher: Hello World from HMM model
30940000: system.cpu.l1i.prefetcher: Hello World from HMM model
31017000: system.cpu.l1i.prefetcher: Hello World from HMM model
31081000: system.cpu.l1i.prefetcher: Hello World from HMM model
31150000: system.cpu.l1i.prefetcher: Hello World from HMM model
31506000: system.cpu.l1d.prefetcher: Hello World from HMM model
31507000: system.cpu.l1d.prefetcher: Hello World from HMM model
31582000: system.cpu.l1d.prefetcher: Hello World from HMM model
31659000: system.cpu.l1i.prefetcher: Hello World from HMM model
31740000: system.cpu.l1i.prefetcher: Hello World from HMM model
31817000: system.cpu.l1i.prefetcher: Hello World from HMM model
31908000: system.cpu.l1i.prefetcher: Hello World from HMM model
31972000: system.cpu.l1i.prefetcher: Hello World from HMM model
32036000: system.cpu.l1i.prefetcher: Hello World from HMM model
32046000: system.cpu.l1d.prefetcher: Hello World from HMM model
32110000: system.cpu.l1d.prefetcher: Hello World from HMM model
32144000: system.cpu.l1i.prefetcher: Hello World from HMM model
32159000: system.cpu.l1d.prefetcher: Hello World from HMM model
32161000: system.cpu.l1d.prefetcher: Hello World from HMM model
32231000: system.cpu.l1d.prefetcher: Hello World from HMM model
32259000: system.cpu.l1d.prefetcher: Hello World from HMM model
32303000: system.cpu.l1i.prefetcher: Hello World from HMM model
32437000: system.cpu.l1i.prefetcher: Hello World from HMM model
32522000: system.cpu.l1d.prefetcher: Hello World from HMM model
32566000: system.cpu.l1i.prefetcher: Hello World from HMM model
32630000: system.cpu.l1i.prefetcher: Hello World from HMM model
32694000: system.cpu.l1i.prefetcher: Hello World from HMM model
32762000: system.cpu.l1i.prefetcher: Hello World from HMM model
32867000: system.cpu.l1i.prefetcher: Hello World from HMM model
32946000: system.cpu.l1i.prefetcher: Hello World from HMM model
33010000: system.cpu.l1i.prefetcher: Hello World from HMM model
33074000: system.cpu.l1i.prefetcher: Hello World from HMM model
33174000: system.cpu.l1i.prefetcher: Hello World from HMM model
33265000: system.cpu.l1i.prefetcher: Hello World from HMM model
33329000: system.cpu.l1i.prefetcher: Hello World from HMM model
33393000: system.cpu.l1i.prefetcher: Hello World from HMM model
33457000: system.cpu.l1i.prefetcher: Hello World from HMM model
33525000: system.cpu.l1i.prefetcher: Hello World from HMM model
33532000: system.cpu.l1d.prefetcher: Hello World from HMM model
33536000: system.cpu.l1d.prefetcher: Hello World from HMM model
33589000: system.cpu.l1i.prefetcher: Hello World from HMM model
33622000: system.cpu.l1d.prefetcher: Hello World from HMM model
33623000: system.cpu.l1d.prefetcher: Hello World from HMM model
33743000: system.cpu.l1i.prefetcher: Hello World from HMM model
33840000: system.cpu.l1d.prefetcher: Hello World from HMM model
33841000: system.cpu.l1d.prefetcher: Hello World from HMM model
33945000: system.cpu.l1d.prefetcher: Hello World from HMM model
33946000: system.cpu.l1d.prefetcher: Hello World from HMM model
34024000: system.cpu.l1d.prefetcher: Hello World from HMM model
34025000: system.cpu.l1d.prefetcher: Hello World from HMM model
34102000: system.cpu.l1d.prefetcher: Hello World from HMM model
34103000: system.cpu.l1d.prefetcher: Hello World from HMM model
34181000: system.cpu.l1d.prefetcher: Hello World from HMM model
34182000: system.cpu.l1d.prefetcher: Hello World from HMM model
34259000: system.cpu.l1d.prefetcher: Hello World from HMM model
34260000: system.cpu.l1d.prefetcher: Hello World from HMM model
34338000: system.cpu.l1d.prefetcher: Hello World from HMM model
34339000: system.cpu.l1d.prefetcher: Hello World from HMM model
34416000: system.cpu.l1d.prefetcher: Hello World from HMM model
34417000: system.cpu.l1d.prefetcher: Hello World from HMM model
34495000: system.cpu.l1d.prefetcher: Hello World from HMM model
34496000: system.cpu.l1d.prefetcher: Hello World from HMM model
34573000: system.cpu.l1d.prefetcher: Hello World from HMM model
34574000: system.cpu.l1d.prefetcher: Hello World from HMM model
34652000: system.cpu.l1d.prefetcher: Hello World from HMM model
34653000: system.cpu.l1d.prefetcher: Hello World from HMM model
34730000: system.cpu.l1d.prefetcher: Hello World from HMM model
34731000: system.cpu.l1d.prefetcher: Hello World from HMM model
34809000: system.cpu.l1d.prefetcher: Hello World from HMM model
34810000: system.cpu.l1d.prefetcher: Hello World from HMM model
34887000: system.cpu.l1d.prefetcher: Hello World from HMM model
34888000: system.cpu.l1d.prefetcher: Hello World from HMM model
34966000: system.cpu.l1d.prefetcher: Hello World from HMM model
34967000: system.cpu.l1d.prefetcher: Hello World from HMM model
35044000: system.cpu.l1d.prefetcher: Hello World from HMM model
35045000: system.cpu.l1d.prefetcher: Hello World from HMM model
35143000: system.cpu.l1i.prefetcher: Hello World from HMM model
35264000: system.cpu.l1i.prefetcher: Hello World from HMM model
35332000: system.cpu.l1i.prefetcher: Hello World from HMM model
35435000: system.cpu.l1i.prefetcher: Hello World from HMM model
35541000: system.cpu.l1i.prefetcher: Hello World from HMM model
35605000: system.cpu.l1i.prefetcher: Hello World from HMM model
35669000: system.cpu.l1i.prefetcher: Hello World from HMM model
35733000: system.cpu.l1i.prefetcher: Hello World from HMM model
35801000: system.cpu.l1i.prefetcher: Hello World from HMM model
35870000: system.cpu.l1i.prefetcher: Hello World from HMM model
35938000: system.cpu.l1i.prefetcher: Hello World from HMM model
36004000: system.cpu.l1i.prefetcher: Hello World from HMM model
36111000: system.cpu.l1d.prefetcher: Hello World from HMM model
36112000: system.cpu.l1d.prefetcher: Hello World from HMM model
36114000: system.cpu.l1i.prefetcher: Hello World from HMM model
36218000: system.cpu.l1i.prefetcher: Hello World from HMM model
36284000: system.cpu.l1i.prefetcher: Hello World from HMM model
36356000: system.cpu.l1i.prefetcher: Hello World from HMM model
36420000: system.cpu.l1i.prefetcher: Hello World from HMM model
36484000: system.cpu.l1i.prefetcher: Hello World from HMM model
36548000: system.cpu.l1i.prefetcher: Hello World from HMM model
36612000: system.cpu.l1i.prefetcher: Hello World from HMM model
36676000: system.cpu.l1i.prefetcher: Hello World from HMM model
36740000: system.cpu.l1i.prefetcher: Hello World from HMM model
36804000: system.cpu.l1i.prefetcher: Hello World from HMM model
36879000: system.cpu.l1i.prefetcher: Hello World from HMM model
36953000: system.cpu.l1i.prefetcher: Hello World from HMM model
37021000: system.cpu.l1i.prefetcher: Hello World from HMM model
37094000: system.cpu.l1i.prefetcher: Hello World from HMM model
37158000: system.cpu.l1i.prefetcher: Hello World from HMM model
37222000: system.cpu.l1i.prefetcher: Hello World from HMM model
37318000: system.cpu.l1i.prefetcher: Hello World from HMM model
37390000: system.cpu.l1i.prefetcher: Hello World from HMM model
37476000: system.cpu.l1i.prefetcher: Hello World from HMM model
37562000: system.cpu.l1i.prefetcher: Hello World from HMM model
37673000: system.cpu.l1i.prefetcher: Hello World from HMM model
37758000: system.cpu.l1i.prefetcher: Hello World from HMM model
37841000: system.cpu.l1i.prefetcher: Hello World from HMM model
37912000: system.cpu.l1i.prefetcher: Hello World from HMM model
37986000: system.cpu.l1i.prefetcher: Hello World from HMM model
38050000: system.cpu.l1i.prefetcher: Hello World from HMM model
38114000: system.cpu.l1i.prefetcher: Hello World from HMM model
38178000: system.cpu.l1i.prefetcher: Hello World from HMM model
38242000: system.cpu.l1i.prefetcher: Hello World from HMM model
38308000: system.cpu.l1i.prefetcher: Hello World from HMM model
38399000: system.cpu.l1i.prefetcher: Hello World from HMM model
38467000: system.cpu.l1i.prefetcher: Hello World from HMM model
38477000: system.cpu.l1d.prefetcher: Hello World from HMM model
38606000: system.cpu.l1d.prefetcher: Hello World from HMM model
38699000: system.cpu.l1i.prefetcher: Hello World from HMM model
38763000: system.cpu.l1i.prefetcher: Hello World from HMM model
38840000: system.cpu.l1i.prefetcher: Hello World from HMM model
38861000: system.cpu.l1d.prefetcher: Hello World from HMM model
38904000: system.cpu.l1i.prefetcher: Hello World from HMM model
38973000: system.cpu.l1i.prefetcher: Hello World from HMM model
39282000: system.cpu.l1i.prefetcher: Hello World from HMM model
39629000: system.cpu.l1i.prefetcher: Hello World from HMM model
39703000: system.cpu.l1i.prefetcher: Hello World from HMM model
39767000: system.cpu.l1i.prefetcher: Hello World from HMM model
39844000: system.cpu.l1i.prefetcher: Hello World from HMM model
39908000: system.cpu.l1i.prefetcher: Hello World from HMM model
39916000: system.cpu.l1d.prefetcher: Hello World from HMM model
39923000: system.cpu.l1d.prefetcher: Hello World from HMM model
39972000: system.cpu.l1i.prefetcher: Hello World from HMM model
40036000: system.cpu.l1i.prefetcher: Hello World from HMM model
40100000: system.cpu.l1i.prefetcher: Hello World from HMM model
40166000: system.cpu.l1i.prefetcher: Hello World from HMM model
40253000: system.cpu.l1i.prefetcher: Hello World from HMM model
40317000: system.cpu.l1i.prefetcher: Hello World from HMM model
40391000: system.cpu.l1i.prefetcher: Hello World from HMM model
40482000: system.cpu.l1i.prefetcher: Hello World from HMM model
40546000: system.cpu.l1i.prefetcher: Hello World from HMM model
40614000: system.cpu.l1i.prefetcher: Hello World from HMM model
40688000: system.cpu.l1i.prefetcher: Hello World from HMM model
40756000: system.cpu.l1i.prefetcher: Hello World from HMM model
40850000: system.cpu.l1i.prefetcher: Hello World from HMM model
41385000: system.cpu.l1i.prefetcher: Hello World from HMM model
41460000: system.cpu.l1i.prefetcher: Hello World from HMM model
41557000: system.cpu.l1i.prefetcher: Hello World from HMM model
41674000: system.cpu.l1i.prefetcher: Hello World from HMM model
41751000: system.cpu.l1i.prefetcher: Hello World from HMM model
41864000: system.cpu.l1i.prefetcher: Hello World from HMM model
41945000: system.cpu.l1i.prefetcher: Hello World from HMM model
42009000: system.cpu.l1i.prefetcher: Hello World from HMM model
42485000: system.cpu.l1i.prefetcher: Hello World from HMM model
42662000: system.cpu.l1i.prefetcher: Hello World from HMM model
42745000: system.cpu.l1i.prefetcher: Hello World from HMM model
42998000: system.cpu.l1d.prefetcher: Hello World from HMM model
43443000: system.cpu.l1i.prefetcher: Hello World from HMM model
43526000: system.cpu.l1i.prefetcher: Hello World from HMM model
44253000: system.cpu.l1i.prefetcher: Hello World from HMM model
44319000: system.cpu.l1i.prefetcher: Hello World from HMM model
44387000: system.cpu.l1i.prefetcher: Hello World from HMM model
44639000: system.cpu.l1i.prefetcher: Hello World from HMM model
44703000: system.cpu.l1i.prefetcher: Hello World from HMM model
44767000: system.cpu.l1i.prefetcher: Hello World from HMM model
44790000: system.cpu.l1d.prefetcher: Hello World from HMM model
44831000: system.cpu.l1i.prefetcher: Hello World from HMM model
44895000: system.cpu.l1i.prefetcher: Hello World from HMM model
44986000: system.cpu.l1i.prefetcher: Hello World from HMM model
45050000: system.cpu.l1i.prefetcher: Hello World from HMM model
45124000: system.cpu.l1d.prefetcher: Hello World from HMM model
45247000: system.cpu.l1i.prefetcher: Hello World from HMM model
45315000: system.cpu.l1i.prefetcher: Hello World from HMM model
45391000: system.cpu.l1i.prefetcher: Hello World from HMM model
45455000: system.cpu.l1i.prefetcher: Hello World from HMM model
45519000: system.cpu.l1i.prefetcher: Hello World from HMM model
45583000: system.cpu.l1i.prefetcher: Hello World from HMM model
45651000: system.cpu.l1i.prefetcher: Hello World from HMM model
45715000: system.cpu.l1i.prefetcher: Hello World from HMM model
45779000: system.cpu.l1i.prefetcher: Hello World from HMM model
45843000: system.cpu.l1i.prefetcher: Hello World from HMM model
45907000: system.cpu.l1i.prefetcher: Hello World from HMM model
46093000: system.cpu.l1i.prefetcher: Hello World from HMM model
46157000: system.cpu.l1i.prefetcher: Hello World from HMM model
46221000: system.cpu.l1i.prefetcher: Hello World from HMM model
46298000: system.cpu.l1i.prefetcher: Hello World from HMM model
46362000: system.cpu.l1i.prefetcher: Hello World from HMM model
46426000: system.cpu.l1i.prefetcher: Hello World from HMM model
46490000: system.cpu.l1i.prefetcher: Hello World from HMM model
46554000: system.cpu.l1i.prefetcher: Hello World from HMM model
46631000: system.cpu.l1i.prefetcher: Hello World from HMM model
46697000: system.cpu.l1i.prefetcher: Hello World from HMM model
46761000: system.cpu.l1i.prefetcher: Hello World from HMM model
47069000: system.cpu.l1i.prefetcher: Hello World from HMM model
47148000: system.cpu.l1i.prefetcher: Hello World from HMM model
47212000: system.cpu.l1i.prefetcher: Hello World from HMM model
47222000: system.cpu.l1d.prefetcher: Hello World from HMM model
47285000: system.cpu.l1i.prefetcher: Hello World from HMM model
47378000: system.cpu.l1i.prefetcher: Hello World from HMM model
47461000: system.cpu.l1i.prefetcher: Hello World from HMM model
47635000: system.cpu.l1d.prefetcher: Hello World from HMM model
47638000: system.cpu.l1d.prefetcher: Hello World from HMM model
47711000: system.cpu.l1d.prefetcher: Hello World from HMM model
47840000: system.cpu.l1d.prefetcher: Hello World from HMM model
47924000: system.cpu.l1i.prefetcher: Hello World from HMM model
47988000: system.cpu.l1i.prefetcher: Hello World from HMM model
48052000: system.cpu.l1i.prefetcher: Hello World from HMM model
48178000: system.cpu.l1d.prefetcher: Hello World from HMM model
48270000: system.cpu.l1i.prefetcher: Hello World from HMM model
48343000: system.cpu.l1i.prefetcher: Hello World from HMM model
48474000: system.cpu.l1d.prefetcher: Hello World from HMM model
48539000: system.cpu.l1i.prefetcher: Hello World from HMM model
48923000: system.cpu.l1i.prefetcher: Hello World from HMM model
49029000: system.cpu.l1d.prefetcher: Hello World from HMM model
49045000: system.cpu.l1d.prefetcher: Hello World from HMM model
49656000: system.cpu.l1i.prefetcher: Hello World from HMM model
49899000: system.cpu.l1i.prefetcher: Hello World from HMM model
50160000: system.cpu.l1d.prefetcher: Hello World from HMM model
50247000: system.cpu.l1d.prefetcher: Hello World from HMM model
50247000: system.cpu.l1i.prefetcher: Hello World from HMM model
50640000: system.cpu.l1d.prefetcher: Hello World from HMM model
50726000: system.cpu.l1i.prefetcher: Hello World from HMM model
50753000: system.cpu.l1d.prefetcher: Hello World from HMM model
50843000: system.cpu.l1i.prefetcher: Hello World from HMM model
50860000: system.cpu.l1d.prefetcher: Hello World from HMM model
50907000: system.cpu.l1i.prefetcher: Hello World from HMM model
50936000: system.cpu.l1d.prefetcher: Hello World from HMM model
51001000: system.cpu.l1d.prefetcher: Hello World from HMM model
51001000: system.cpu.l1i.prefetcher: Hello World from HMM model
51002000: system.cpu.l1d.prefetcher: Hello World from HMM model
51164000: system.cpu.l1d.prefetcher: Hello World from HMM model
51169000: system.cpu.l1d.prefetcher: Hello World from HMM model
51293000: system.cpu.l1d.prefetcher: Hello World from HMM model
51319000: system.cpu.l1d.prefetcher: Hello World from HMM model
51466000: system.cpu.l1d.prefetcher: Hello World from HMM model
51487000: system.cpu.l1i.prefetcher: Hello World from HMM model
51568000: system.cpu.l1i.prefetcher: Hello World from HMM model
51947000: system.cpu.l1d.prefetcher: Hello World from HMM model
52145000: system.cpu.l1i.prefetcher: Hello World from HMM model
52543000: system.cpu.l1d.prefetcher: Hello World from HMM model
52543000: system.cpu.l1d.prefetcher: Hello World from HMM model
52634000: system.cpu.l1i.prefetcher: Hello World from HMM model
52786000: system.cpu.l1i.prefetcher: Hello World from HMM model
52877000: system.cpu.l1i.prefetcher: Hello World from HMM model
53187000: system.cpu.l1i.prefetcher: Hello World from HMM model
53258000: system.cpu.l1i.prefetcher: Hello World from HMM model
53263000: system.cpu.l1d.prefetcher: Hello World from HMM model
53601000: system.cpu.l1d.prefetcher: Hello World from HMM model
53722000: system.cpu.l1d.prefetcher: Hello World from HMM model
53723000: system.cpu.l1d.prefetcher: Hello World from HMM model
53832000: system.cpu.l1i.prefetcher: Hello World from HMM model
53909000: system.cpu.l1i.prefetcher: Hello World from HMM model
53973000: system.cpu.l1i.prefetcher: Hello World from HMM model
54041000: system.cpu.l1i.prefetcher: Hello World from HMM model
54105000: system.cpu.l1i.prefetcher: Hello World from HMM model
54196000: system.cpu.l1i.prefetcher: Hello World from HMM model
54264000: system.cpu.l1i.prefetcher: Hello World from HMM model
54336000: system.cpu.l1i.prefetcher: Hello World from HMM model
54453000: system.cpu.l1i.prefetcher: Hello World from HMM model
54544000: system.cpu.l1i.prefetcher: Hello World from HMM model
54861000: system.cpu.l1i.prefetcher: Hello World from HMM model
54938000: system.cpu.l1i.prefetcher: Hello World from HMM model
55002000: system.cpu.l1i.prefetcher: Hello World from HMM model
55068000: system.cpu.l1i.prefetcher: Hello World from HMM model
55132000: system.cpu.l1i.prefetcher: Hello World from HMM model
55196000: system.cpu.l1i.prefetcher: Hello World from HMM model
55264000: system.cpu.l1i.prefetcher: Hello World from HMM model
55271000: system.cpu.l1d.prefetcher: Hello World from HMM model
55275000: system.cpu.l1d.prefetcher: Hello World from HMM model
55328000: system.cpu.l1i.prefetcher: Hello World from HMM model
55405000: system.cpu.l1i.prefetcher: Hello World from HMM model
55496000: system.cpu.l1i.prefetcher: Hello World from HMM model
55573000: system.cpu.l1i.prefetcher: Hello World from HMM model
55580000: system.cpu.l1d.prefetcher: Hello World from HMM model
55637000: system.cpu.l1i.prefetcher: Hello World from HMM model
55642000: system.cpu.l1d.prefetcher: Hello World from HMM model
55701000: system.cpu.l1i.prefetcher: Hello World from HMM model
55803000: system.cpu.l1i.prefetcher: Hello World from HMM model
55880000: system.cpu.l1i.prefetcher: Hello World from HMM model
55957000: system.cpu.l1i.prefetcher: Hello World from HMM model
56021000: system.cpu.l1i.prefetcher: Hello World from HMM model
56026000: system.cpu.l1d.prefetcher: Hello World from HMM model
56085000: system.cpu.l1i.prefetcher: Hello World from HMM model
56149000: system.cpu.l1i.prefetcher: Hello World from HMM model
56213000: system.cpu.l1i.prefetcher: Hello World from HMM model
56218000: system.cpu.l1d.prefetcher: Hello World from HMM model
56277000: system.cpu.l1i.prefetcher: Hello World from HMM model
56288000: system.cpu.l1d.prefetcher: Hello World from HMM model
56341000: system.cpu.l1i.prefetcher: Hello World from HMM model
56411000: system.cpu.l1i.prefetcher: Hello World from HMM model
56477000: system.cpu.l1i.prefetcher: Hello World from HMM model
56567000: system.cpu.l1i.prefetcher: Hello World from HMM model
56638000: system.cpu.l1i.prefetcher: Hello World from HMM model
56652000: system.cpu.l1d.prefetcher: Hello World from HMM model
56653000: system.cpu.l1d.prefetcher: Hello World from HMM model
56720000: system.cpu.l1i.prefetcher: Hello World from HMM model
56809000: system.cpu.l1i.prefetcher: Hello World from HMM model
56825000: system.cpu.l1i.prefetcher: Hello World from HMM model
56920000: system.cpu.l1i.prefetcher: Hello World from HMM model
56984000: system.cpu.l1i.prefetcher: Hello World from HMM model
57104000: system.cpu.l1i.prefetcher: Hello World from HMM model
57168000: system.cpu.l1i.prefetcher: Hello World from HMM model
57232000: system.cpu.l1i.prefetcher: Hello World from HMM model
57296000: system.cpu.l1i.prefetcher: Hello World from HMM model
57387000: system.cpu.l1i.prefetcher: Hello World from HMM model
57392000: system.cpu.l1d.prefetcher: Hello World from HMM model
57464000: system.cpu.l1i.prefetcher: Hello World from HMM model
57528000: system.cpu.l1i.prefetcher: Hello World from HMM model
57619000: system.cpu.l1i.prefetcher: Hello World from HMM model
57632000: system.cpu.l1d.prefetcher: Hello World from HMM model
57633000: system.cpu.l1d.prefetcher: Hello World from HMM model
57683000: system.cpu.l1i.prefetcher: Hello World from HMM model
57754000: system.cpu.l1d.prefetcher: Hello World from HMM model
57901000: system.cpu.l1i.prefetcher: Hello World from HMM model
57992000: system.cpu.l1i.prefetcher: Hello World from HMM model
58008000: system.cpu.l1i.prefetcher: Hello World from HMM model
58059000: system.cpu.l1i.prefetcher: Hello World from HMM model
58123000: system.cpu.l1i.prefetcher: Hello World from HMM model
58187000: system.cpu.l1i.prefetcher: Hello World from HMM model
58251000: system.cpu.l1i.prefetcher: Hello World from HMM model
58315000: system.cpu.l1i.prefetcher: Hello World from HMM model
58379000: system.cpu.l1i.prefetcher: Hello World from HMM model
58456000: system.cpu.l1d.prefetcher: Hello World from HMM model
58634000: system.cpu.l1i.prefetcher: Hello World from HMM model
58736000: system.cpu.l1i.prefetcher: Hello World from HMM model
58838000: system.cpu.l1i.prefetcher: Hello World from HMM model
58902000: system.cpu.l1i.prefetcher: Hello World from HMM model
58966000: system.cpu.l1i.prefetcher: Hello World from HMM model
59034000: system.cpu.l1i.prefetcher: Hello World from HMM model
59102000: system.cpu.l1i.prefetcher: Hello World from HMM model
59184000: system.cpu.l1i.prefetcher: Hello World from HMM model
59260000: system.cpu.l1i.prefetcher: Hello World from HMM model
59351000: system.cpu.l1i.prefetcher: Hello World from HMM model
59417000: system.cpu.l1i.prefetcher: Hello World from HMM model
59429000: system.cpu.l1d.prefetcher: Hello World from HMM model
59430000: system.cpu.l1d.prefetcher: Hello World from HMM model
59481000: system.cpu.l1i.prefetcher: Hello World from HMM model
59549000: system.cpu.l1i.prefetcher: Hello World from HMM model
59620000: system.cpu.l1d.prefetcher: Hello World from HMM model
59697000: system.cpu.l1d.prefetcher: Hello World from HMM model
59773000: system.cpu.l1i.prefetcher: Hello World from HMM model
59864000: system.cpu.l1i.prefetcher: Hello World from HMM model
59946000: system.cpu.l1i.prefetcher: Hello World from HMM model
59970000: system.cpu.l1d.prefetcher: Hello World from HMM model
60010000: system.cpu.l1i.prefetcher: Hello World from HMM model
60069000: system.cpu.l1d.prefetcher: Hello World from HMM model
60073000: system.cpu.l1i.prefetcher: Hello World from HMM model
60139000: system.cpu.l1i.prefetcher: Hello World from HMM model
118548000: system.cpu.l1i.prefetcher: Hello World from HMM model
118629000: system.cpu.l1i.prefetcher: Hello World from HMM model
118644000: system.cpu.l1i.prefetcher: Hello World from HMM model
118715000: system.cpu.l1i.prefetcher: Hello World from HMM model
118735000: system.cpu.l1d.prefetcher: Hello World from HMM model
118792000: system.cpu.l1i.prefetcher: Hello World from HMM model
118868000: system.cpu.l1i.prefetcher: Hello World from HMM model
118940000: system.cpu.l1i.prefetcher: Hello World from HMM model
119019000: system.cpu.l1i.prefetcher: Hello World from HMM model
119096000: system.cpu.l1i.prefetcher: Hello World from HMM model
119165000: system.cpu.l1d.prefetcher: Hello World from HMM model
119318000: system.cpu.l1i.prefetcher: Hello World from HMM model
119372000: system.cpu.l1i.prefetcher: Hello World from HMM model
119449000: system.cpu.l1i.prefetcher: Hello World from HMM model
119513000: system.cpu.l1i.prefetcher: Hello World from HMM model
119577000: system.cpu.l1i.prefetcher: Hello World from HMM model
119645000: system.cpu.l1i.prefetcher: Hello World from HMM model
119713000: system.cpu.l1i.prefetcher: Hello World from HMM model
119832000: system.cpu.l1i.prefetcher: Hello World from HMM model
119896000: system.cpu.l1i.prefetcher: Hello World from HMM model
119973000: system.cpu.l1i.prefetcher: Hello World from HMM model
120041000: system.cpu.l1i.prefetcher: Hello World from HMM model
120135000: system.cpu.l1i.prefetcher: Hello World from HMM model
120201000: system.cpu.l1i.prefetcher: Hello World from HMM model
120292000: system.cpu.l1i.prefetcher: Hello World from HMM model
120316000: system.cpu.l1d.prefetcher: Hello World from HMM model
120356000: system.cpu.l1i.prefetcher: Hello World from HMM model
120420000: system.cpu.l1i.prefetcher: Hello World from HMM model
120497000: system.cpu.l1i.prefetcher: Hello World from HMM model
120561000: system.cpu.l1i.prefetcher: Hello World from HMM model
120625000: system.cpu.l1i.prefetcher: Hello World from HMM model
120689000: system.cpu.l1i.prefetcher: Hello World from HMM model
120753000: system.cpu.l1i.prefetcher: Hello World from HMM model
120817000: system.cpu.l1i.prefetcher: Hello World from HMM model
120881000: system.cpu.l1i.prefetcher: Hello World from HMM model
120949000: system.cpu.l1i.prefetcher: Hello World from HMM model
120953000: system.cpu.l1d.prefetcher: Hello World from HMM model
121013000: system.cpu.l1i.prefetcher: Hello World from HMM model
121047000: system.cpu.l1d.prefetcher: Hello World from HMM model
121077000: system.cpu.l1i.prefetcher: Hello World from HMM model
121141000: system.cpu.l1i.prefetcher: Hello World from HMM model
121207000: system.cpu.l1i.prefetcher: Hello World from HMM model
121271000: system.cpu.l1i.prefetcher: Hello World from HMM model
121274000: system.cpu.l1d.prefetcher: Hello World from HMM model
121337000: system.cpu.l1d.prefetcher: Hello World from HMM model
121338000: system.cpu.l1d.prefetcher: Hello World from HMM model
121430000: system.cpu.l1d.prefetcher: Hello World from HMM model
121496000: system.cpu.l1d.prefetcher: Hello World from HMM model
121559000: system.cpu.l1d.prefetcher: Hello World from HMM model
121622000: system.cpu.l1d.prefetcher: Hello World from HMM model
121623000: system.cpu.l1d.prefetcher: Hello World from HMM model
121714000: system.cpu.l1d.prefetcher: Hello World from HMM model
121780000: system.cpu.l1d.prefetcher: Hello World from HMM model
121843000: system.cpu.l1d.prefetcher: Hello World from HMM model
121938000: system.cpu.l1d.prefetcher: Hello World from HMM model
122036000: system.cpu.l1i.prefetcher: Hello World from HMM model
122139000: system.cpu.l1i.prefetcher: Hello World from HMM model
122203000: system.cpu.l1i.prefetcher: Hello World from HMM model
122280000: system.cpu.l1i.prefetcher: Hello World from HMM model
122350000: system.cpu.l1i.prefetcher: Hello World from HMM model
122418000: system.cpu.l1i.prefetcher: Hello World from HMM model
122492000: system.cpu.l1i.prefetcher: Hello World from HMM model
122574000: system.cpu.l1d.prefetcher: Hello World from HMM model
122647000: system.cpu.l1i.prefetcher: Hello World from HMM model
122711000: system.cpu.l1i.prefetcher: Hello World from HMM model
122775000: system.cpu.l1i.prefetcher: Hello World from HMM model
122858000: system.cpu.l1i.prefetcher: Hello World from HMM model
122938000: system.cpu.l1i.prefetcher: Hello World from HMM model
123015000: system.cpu.l1i.prefetcher: Hello World from HMM model
123083000: system.cpu.l1i.prefetcher: Hello World from HMM model
Exit Eventexiting with last active thread context
Dump stats at the end of the ROI!
