gem5 Simulator System.  http://gem5.org
gem5 is copyrighted software; use the --copyright option for details.

gem5 version 20.1.0.2
gem5 compiled Dec  8 2021 05:50:25
gem5 started Dec  8 2021 05:51:51
gem5 executing on ARCH-750, pid 996331
command line: /data/home/ycc32/450_project/gem5/build/X86/gem5.opt --debug-flags=HWPrefetch -re --outdir=/data/home/ycc32/450_project/gem5/results/X86/run_micro/EI/Minor4/Slow/DDR3_2133_8x8/1GHz gem5-config/run_micro.py Minor4 Slow microbenchmark/EI/bench.X86 DDR3_2133_8x8 --clock=1GHz

1GHz CPU speed and DRAM = DDR3_2133_8x8
system.py: init L2 cache with size 1MB
Global frequency set at 1000000000000 ticks per second
   1000: system.cpu.l1i.prefetcher: INSERTENTRY(): spatio_region:        0X3, pc:   0x401be0, physical addr:     0x1bc0
   1000: system.cpu.l1i.prefetcher: Created FT entry with:   0x401be0
   1000: system.cpu.l1i.prefetcher: CONGRATS: SUCCESS in inserting new FT entry found!!
  79000: system.cpu.l1i.prefetcher: INSERTENTRY(): spatio_region:        0X3, pc:   0x401c00, physical addr:     0x1c00
  79000: system.cpu.l1i.prefetcher: Created FT entry with:   0x401c00
  79000: system.cpu.l1i.prefetcher: CONGRATS: SUCCESS in inserting new FT entry found!!
  82000: system.cpu.l1d.prefetcher: INSERTENTRY(): spatio_region:      0X187, pc:   0x401be9, physical addr:    0xc3e50
  82000: system.cpu.l1d.prefetcher: Created FT entry with:   0x401be9
  82000: system.cpu.l1d.prefetcher: CONGRATS: SUCCESS in inserting new FT entry found!!
 143000: system.cpu.l1i.prefetcher: INSERTENTRY(): spatio_region:        0X3, pc:   0x401c40, physical addr:     0x1c40
 143000: system.cpu.l1i.prefetcher: Created FT entry with:   0x401c40
 143000: system.cpu.l1i.prefetcher: CONGRATS: SUCCESS in inserting new FT entry found!!
 167000: system.cpu.l1d.prefetcher: INSERTENTRY(): spatio_region:      0X187, pc:   0x401c08, physical addr:    0xc3e38
 167000: system.cpu.l1d.prefetcher: Created FT entry with:   0x401c08
 167000: system.cpu.l1d.prefetcher: CONGRATS: SUCCESS in inserting new FT entry found!!
 207000: system.cpu.l1i.prefetcher: INSERTENTRY(): spatio_region:        0X4, pc:   0x402250, physical addr:     0x2240
 207000: system.cpu.l1i.prefetcher: Created FT entry with:   0x402250
 207000: system.cpu.l1i.prefetcher: CONGRATS: SUCCESS in inserting new FT entry found!!
 298000: system.cpu.l1i.prefetcher: INSERTENTRY(): spatio_region:        0X4, pc:   0x402280, physical addr:     0x2280
 298000: system.cpu.l1i.prefetcher: Created FT entry with:   0x402280
 298000: system.cpu.l1i.prefetcher: CONGRATS: SUCCESS in inserting new FT entry found!!
 318000: system.cpu.l1d.prefetcher: INSERTENTRY(): spatio_region:      0X187, pc:   0x40226e, physical addr:    0xc3d40
 318000: system.cpu.l1d.prefetcher: Created FT entry with:   0x40226e
 318000: system.cpu.l1d.prefetcher: CONGRATS: SUCCESS in inserting new FT entry found!!
 321000: system.cpu.l1d.prefetcher: INSERTENTRY(): spatio_region:      0X187, pc:   0x40227a, physical addr:    0xc3d48
 321000: system.cpu.l1d.prefetcher: Created FT entry with:   0x40227a
 321000: system.cpu.l1d.prefetcher: CONGRATS: SUCCESS in inserting new FT entry found!!
 362000: system.cpu.l1i.prefetcher: INSERTENTRY(): spatio_region:        0X4, pc:   0x4022c0, physical addr:     0x22c0
 362000: system.cpu.l1i.prefetcher: Created FT entry with:   0x4022c0
 362000: system.cpu.l1i.prefetcher: CONGRATS: SUCCESS in inserting new FT entry found!!
 408000: system.cpu.l1d.prefetcher: INSERTENTRY(): spatio_region:      0X187, pc:   0x40227f, physical addr:    0xc3d3c
 408000: system.cpu.l1d.prefetcher: Created FT entry with:   0x40227f
 408000: system.cpu.l1d.prefetcher: CONGRATS: SUCCESS in inserting new FT entry found!!
 459000: system.cpu.l1i.prefetcher: INSERTENTRY(): spatio_region:        0X4, pc:   0x402300, physical addr:     0x2300
 459000: system.cpu.l1i.prefetcher: Created FT entry with:   0x402300
 459000: system.cpu.l1i.prefetcher: CONGRATS: SUCCESS in inserting new FT entry found!!
 463000: system.cpu.l1d.prefetcher: INSERTENTRY(): spatio_region:      0X180, pc:   0x402291, physical addr:    0xc06c8
 463000: system.cpu.l1d.prefetcher: Created FT entry with:   0x402291
 463000: system.cpu.l1d.prefetcher: CONGRATS: SUCCESS in inserting new FT entry found!!
 555000: system.cpu.l1i.prefetcher: INSERTENTRY(): spatio_region:        0X3, pc:   0x401c80, physical addr:     0x1c80
 555000: system.cpu.l1i.prefetcher: Created FT entry with:   0x401c80
 555000: system.cpu.l1i.prefetcher: CONGRATS: SUCCESS in inserting new FT entry found!!
 653000: system.cpu.l1i.prefetcher: INSERTENTRY(): spatio_region:        0X4, pc:   0x402340, physical addr:     0x2340
 653000: system.cpu.l1i.prefetcher: Created FT entry with:   0x402340
 653000: system.cpu.l1i.prefetcher: CONGRATS: SUCCESS in inserting new FT entry found!!
 657000: system.cpu.l1d.prefetcher: INSERTENTRY(): spatio_region:      0X183, pc:   0x4022b3, physical addr:    0xc1ce8
 657000: system.cpu.l1d.prefetcher: Created FT entry with:   0x4022b3
 657000: system.cpu.l1d.prefetcher: CONGRATS: SUCCESS in inserting new FT entry found!!
 660000: system.cpu.l1d.prefetcher: INSERTENTRY(): spatio_region:      0X17D, pc:   0x4022ba, physical addr:    0xbea70
 660000: system.cpu.l1d.prefetcher: Created FT entry with:   0x4022ba
 660000: system.cpu.l1d.prefetcher: CONGRATS: SUCCESS in inserting new FT entry found!!
 717000: system.cpu.l1i.prefetcher: INSERTENTRY(): spatio_region:        0X4, pc:   0x402380, physical addr:     0x2380
 717000: system.cpu.l1i.prefetcher: Created FT entry with:   0x402380
 717000: system.cpu.l1i.prefetcher: CONGRATS: SUCCESS in inserting new FT entry found!!
 781000: system.cpu.l1i.prefetcher: INSERTENTRY(): spatio_region:       0X98, pc:   0x44c550, physical addr:    0x4c540
 781000: system.cpu.l1i.prefetcher: Created FT entry with:   0x44c550
 781000: system.cpu.l1i.prefetcher: CONGRATS: SUCCESS in inserting new FT entry found!!
 858000: system.cpu.l1i.prefetcher: INSERTENTRY(): spatio_region:       0X98, pc:   0x44c580, physical addr:    0x4c580
 858000: system.cpu.l1i.prefetcher: Created FT entry with:   0x44c580
 858000: system.cpu.l1i.prefetcher: CONGRATS: SUCCESS in inserting new FT entry found!!
 865000: system.cpu.l1d.prefetcher: INSERTENTRY(): spatio_region:      0X184, pc:   0x44c557, physical addr:    0xc27e0
 865000: system.cpu.l1d.prefetcher: Created FT entry with:   0x44c557
 865000: system.cpu.l1d.prefetcher: CONGRATS: SUCCESS in inserting new FT entry found!!
 871000: system.cpu.l1d.prefetcher: INSERTENTRY(): spatio_region:      0X183, pc:   0x44c569, physical addr:    0xc1d00
 871000: system.cpu.l1d.prefetcher: Created FT entry with:   0x44c569
 871000: system.cpu.l1d.prefetcher: CONGRATS: SUCCESS in inserting new FT entry found!!
 922000: system.cpu.l1i.prefetcher: INSERTENTRY(): spatio_region:       0X98, pc:   0x44c5c0, physical addr:    0x4c5c0
 922000: system.cpu.l1i.prefetcher: Created FT entry with:   0x44c5c0
 922000: system.cpu.l1i.prefetcher: CONGRATS: SUCCESS in inserting new FT entry found!!
 960000: system.cpu.l1d.prefetcher: INSERTENTRY(): spatio_region:      0X185, pc:   0x44c578, physical addr:    0xc2890
 960000: system.cpu.l1d.prefetcher: Created FT entry with:   0x44c578
 960000: system.cpu.l1d.prefetcher: CONGRATS: SUCCESS in inserting new FT entry found!!
 986000: system.cpu.l1i.prefetcher: INSERTENTRY(): spatio_region:       0X98, pc:   0x44c600, physical addr:    0x4c600
 986000: system.cpu.l1i.prefetcher: Created FT entry with:   0x44c600
 986000: system.cpu.l1i.prefetcher: CONGRATS: SUCCESS in inserting new FT entry found!!
1025000: system.cpu.l1d.prefetcher: INSERTENTRY(): spatio_region:      0X180, pc:   0x44c586, physical addr:    0xc0118
1025000: system.cpu.l1d.prefetcher: Created FT entry with:   0x44c586
1025000: system.cpu.l1d.prefetcher: CONGRATS: SUCCESS in inserting new FT entry found!!
1050000: system.cpu.l1i.prefetcher: INSERTENTRY(): spatio_region:       0X98, pc:   0x44c640, physical addr:    0x4c640
1050000: system.cpu.l1i.prefetcher: Created FT entry with:   0x44c640
1050000: system.cpu.l1i.prefetcher: CONGRATS: SUCCESS in inserting new FT entry found!!
1089000: system.cpu.l1d.prefetcher: INSERTENTRY(): spatio_region:      0X185, pc:   0x44c594, physical addr:    0xc2848
1089000: system.cpu.l1d.prefetcher: Created FT entry with:   0x44c594
1089000: system.cpu.l1d.prefetcher: CONGRATS: SUCCESS in inserting new FT entry found!!
1152000: system.cpu.l1d.prefetcher: INSERTENTRY(): spatio_region:      0X185, pc:   0x44c59b, physical addr:    0xc2810
1152000: system.cpu.l1d.prefetcher: Created FT entry with:   0x44c59b
1152000: system.cpu.l1d.prefetcher: CONGRATS: SUCCESS in inserting new FT entry found!!
1222000: system.cpu.l1d.prefetcher: INSERTENTRY(): spatio_region:      0X187, pc:   0x44c5ae, physical addr:    0xc3cf8
1222000: system.cpu.l1d.prefetcher: Created FT entry with:   0x44c5ae
1222000: system.cpu.l1d.prefetcher: CONGRATS: SUCCESS in inserting new FT entry found!!
1226000: system.cpu.l1d.prefetcher: INSERTENTRY(): spatio_region:      0X187, pc:   0x44c5b6, physical addr:    0xc3cd0
1226000: system.cpu.l1d.prefetcher: Created FT entry with:   0x44c5b6
1226000: system.cpu.l1d.prefetcher: CONGRATS: SUCCESS in inserting new FT entry found!!
1228000: system.cpu.l1i.prefetcher: INSERTENTRY(): spatio_region:       0X98, pc:   0x44c680, physical addr:    0x4c680
1228000: system.cpu.l1i.prefetcher: Created FT entry with:   0x44c680
1228000: system.cpu.l1i.prefetcher: CONGRATS: SUCCESS in inserting new FT entry found!!
1285000: system.cpu.l1d.prefetcher: INSERTENTRY(): spatio_region:      0X17D, pc:   0x44c5bb, physical addr:    0xbeaa0
1285000: system.cpu.l1d.prefetcher: Created FT entry with:   0x44c5bb
1285000: system.cpu.l1d.prefetcher: CONGRATS: SUCCESS in inserting new FT entry found!!
1379000: system.cpu.l1i.prefetcher: INSERTENTRY(): spatio_region:       0X98, pc:   0x44c6c0, physical addr:    0x4c6c0
1379000: system.cpu.l1i.prefetcher: Created FT entry with:   0x44c6c0
1379000: system.cpu.l1i.prefetcher: CONGRATS: SUCCESS in inserting new FT entry found!!
1387000: system.cpu.l1d.prefetcher: INSERTENTRY(): spatio_region:      0X131, pc:   0x44c632, physical addr:    0x98ff8
1387000: system.cpu.l1d.prefetcher: Created FT entry with:   0x44c632
1387000: system.cpu.l1d.prefetcher: CONGRATS: SUCCESS in inserting new FT entry found!!
1466000: system.cpu.l1i.prefetcher: INSERTENTRY(): spatio_region:       0X98, pc:   0x44c740, physical addr:    0x4c740
1466000: system.cpu.l1i.prefetcher: Created FT entry with:   0x44c740
1466000: system.cpu.l1i.prefetcher: CONGRATS: SUCCESS in inserting new FT entry found!!
1530000: system.cpu.l1i.prefetcher: INSERTENTRY(): spatio_region:       0X98, pc:   0x44c780, physical addr:    0x4c780
1530000: system.cpu.l1i.prefetcher: Created FT entry with:   0x44c780
1530000: system.cpu.l1i.prefetcher: CONGRATS: SUCCESS in inserting new FT entry found!!
1539000: system.cpu.l1d.prefetcher: INSERTENTRY(): spatio_region:      0X187, pc:   0x44c752, physical addr:    0xc3e80
1539000: system.cpu.l1d.prefetcher: Created FT entry with:   0x44c752
1539000: system.cpu.l1d.prefetcher: CONGRATS: SUCCESS in inserting new FT entry found!!
1594000: system.cpu.l1i.prefetcher: INSERTENTRY(): spatio_region:       0X98, pc:   0x44c7c0, physical addr:    0x4c7c0
1594000: system.cpu.l1i.prefetcher: Created FT entry with:   0x44c7c0
1594000: system.cpu.l1i.prefetcher: CONGRATS: SUCCESS in inserting new FT entry found!!
1667000: system.cpu.l1d.prefetcher: INSERTENTRY(): spatio_region:      0X131, pc:   0x44c632, physical addr:    0x98fb4
1667000: system.cpu.l1d.prefetcher: Created FT entry with:   0x44c632
1667000: system.cpu.l1d.prefetcher: CONGRATS: SUCCESS in inserting new FT entry found!!
1733000: system.cpu.l1i.prefetcher: INSERTENTRY(): spatio_region:       0X99, pc:   0x44c810, physical addr:    0x4c800
1733000: system.cpu.l1i.prefetcher: Created FT entry with:   0x44c810
1733000: system.cpu.l1i.prefetcher: CONGRATS: SUCCESS in inserting new FT entry found!!
1797000: system.cpu.l1i.prefetcher: INSERTENTRY(): spatio_region:       0X99, pc:   0x44c840, physical addr:    0x4c840
1797000: system.cpu.l1i.prefetcher: Created FT entry with:   0x44c840
1797000: system.cpu.l1i.prefetcher: CONGRATS: SUCCESS in inserting new FT entry found!!
1876000: system.cpu.l1i.prefetcher: INSERTENTRY(): spatio_region:       0X99, pc:   0x44c8e0, physical addr:    0x4c8c0
1876000: system.cpu.l1i.prefetcher: Created FT entry with:   0x44c8e0
1876000: system.cpu.l1i.prefetcher: CONGRATS: SUCCESS in inserting new FT entry found!!
1940000: system.cpu.l1i.prefetcher: INSERTENTRY(): spatio_region:       0X99, pc:   0x44c900, physical addr:    0x4c900
1940000: system.cpu.l1i.prefetcher: Created FT entry with:   0x44c900
1940000: system.cpu.l1i.prefetcher: CONGRATS: SUCCESS in inserting new FT entry found!!
2004000: system.cpu.l1i.prefetcher: INSERTENTRY(): spatio_region:       0X99, pc:   0x44c940, physical addr:    0x4c940
2004000: system.cpu.l1i.prefetcher: Created FT entry with:   0x44c940
2004000: system.cpu.l1i.prefetcher: CONGRATS: SUCCESS in inserting new FT entry found!!
2091000: system.cpu.l1i.prefetcher: INSERTENTRY(): spatio_region:       0X99, pc:   0x44c880, physical addr:    0x4c880
2091000: system.cpu.l1i.prefetcher: Created FT entry with:   0x44c880
2091000: system.cpu.l1i.prefetcher: CONGRATS: SUCCESS in inserting new FT entry found!!
2174000: system.cpu.l1i.prefetcher: INSERTENTRY(): spatio_region:       0X99, pc:   0x44c980, physical addr:    0x4c980
2174000: system.cpu.l1i.prefetcher: Created FT entry with:   0x44c980
2174000: system.cpu.l1i.prefetcher: CONGRATS: SUCCESS in inserting new FT entry found!!
2177000: system.cpu.l1d.prefetcher: INSERTENTRY(): spatio_region:      0X187, pc:   0x44c934, physical addr:    0xc3ec0
2177000: system.cpu.l1d.prefetcher: Created FT entry with:   0x44c934
2177000: system.cpu.l1d.prefetcher: CONGRATS: SUCCESS in inserting new FT entry found!!
2251000: system.cpu.l1i.prefetcher: INSERTENTRY(): spatio_region:       0X99, pc:   0x44c9c0, physical addr:    0x4c9c0
2251000: system.cpu.l1i.prefetcher: Created FT entry with:   0x44c9c0
2251000: system.cpu.l1i.prefetcher: CONGRATS: SUCCESS in inserting new FT entry found!!
2342000: system.cpu.l1i.prefetcher: INSERTENTRY(): spatio_region:       0X98, pc:   0x44c700, physical addr:    0x4c700
2342000: system.cpu.l1i.prefetcher: Created FT entry with:   0x44c700
2342000: system.cpu.l1i.prefetcher: CONGRATS: SUCCESS in inserting new FT entry found!!
2495000: system.cpu.l1d.prefetcher: INSERTENTRY(): spatio_region:      0X187, pc:   0x44c650, physical addr:    0xc3f00
2495000: system.cpu.l1d.prefetcher: Created FT entry with:   0x44c650
2495000: system.cpu.l1d.prefetcher: CONGRATS: SUCCESS in inserting new FT entry found!!
2686000: system.cpu.l1d.prefetcher: INSERTENTRY(): spatio_region:      0X187, pc:   0x44c883, physical addr:    0xc3f40
2686000: system.cpu.l1d.prefetcher: Created FT entry with:   0x44c883
2686000: system.cpu.l1d.prefetcher: CONGRATS: SUCCESS in inserting new FT entry found!!
2884000: system.cpu.l1d.prefetcher: INSERTENTRY(): spatio_region:      0X187, pc:   0x44c650, physical addr:    0xc3f80
2884000: system.cpu.l1d.prefetcher: Created FT entry with:   0x44c650
2884000: system.cpu.l1d.prefetcher: CONGRATS: SUCCESS in inserting new FT entry found!!
3011000: system.cpu.l1i.prefetcher: INSERTENTRY(): spatio_region:       0X99, pc:   0x44ca00, physical addr:    0x4ca00
3011000: system.cpu.l1i.prefetcher: Created FT entry with:   0x44ca00
3011000: system.cpu.l1i.prefetcher: CONGRATS: SUCCESS in inserting new FT entry found!!
3222000: system.cpu.l1i.prefetcher: INSERTENTRY(): spatio_region:        0X4, pc:   0x4023c0, physical addr:     0x23c0
3222000: system.cpu.l1i.prefetcher: Created FT entry with:   0x4023c0
3222000: system.cpu.l1i.prefetcher: CONGRATS: SUCCESS in inserting new FT entry found!!
3313000: system.cpu.l1i.prefetcher: INSERTENTRY(): spatio_region:       0X9A, pc:   0x44d6b0, physical addr:    0x4d680
3313000: system.cpu.l1i.prefetcher: Created FT entry with:   0x44d6b0
3313000: system.cpu.l1i.prefetcher: CONGRATS: SUCCESS in inserting new FT entry found!!
3377000: system.cpu.l1i.prefetcher: INSERTENTRY(): spatio_region:       0X9A, pc:   0x44d6c0, physical addr:    0x4d6c0
3377000: system.cpu.l1i.prefetcher: Created FT entry with:   0x44d6c0
3377000: system.cpu.l1i.prefetcher: CONGRATS: SUCCESS in inserting new FT entry found!!
3455000: system.cpu.l1i.prefetcher: INSERTENTRY(): spatio_region:       0X97, pc:   0x44bf50, physical addr:    0x4bf40
3455000: system.cpu.l1i.prefetcher: Created FT entry with:   0x44bf50
3455000: system.cpu.l1i.prefetcher: CONGRATS: SUCCESS in inserting new FT entry found!!
3532000: system.cpu.l1i.prefetcher: INSERTENTRY(): spatio_region:       0X97, pc:   0x44bf80, physical addr:    0x4bf80
3532000: system.cpu.l1i.prefetcher: Created FT entry with:   0x44bf80
3532000: system.cpu.l1i.prefetcher: CONGRATS: SUCCESS in inserting new FT entry found!!
3596000: system.cpu.l1i.prefetcher: INSERTENTRY(): spatio_region:       0X97, pc:   0x44bfc0, physical addr:    0x4bfc0
3596000: system.cpu.l1i.prefetcher: Created FT entry with:   0x44bfc0
3596000: system.cpu.l1i.prefetcher: CONGRATS: SUCCESS in inserting new FT entry found!!
3660000: system.cpu.l1i.prefetcher: INSERTENTRY(): spatio_region:       0X98, pc:   0x44c09a, physical addr:    0x4c080
3660000: system.cpu.l1i.prefetcher: Created FT entry with:   0x44c09a
3660000: system.cpu.l1i.prefetcher: CONGRATS: SUCCESS in inserting new FT entry found!!
3724000: system.cpu.l1i.prefetcher: INSERTENTRY(): spatio_region:       0X98, pc:   0x44c0c0, physical addr:    0x4c0c0
3724000: system.cpu.l1i.prefetcher: Created FT entry with:   0x44c0c0
3724000: system.cpu.l1i.prefetcher: CONGRATS: SUCCESS in inserting new FT entry found!!
3816000: system.cpu.l1d.prefetcher: INSERTENTRY(): spatio_region:      0X183, pc:   0x40233f, physical addr:    0xc1d8c
3816000: system.cpu.l1d.prefetcher: Created FT entry with:   0x40233f
3816000: system.cpu.l1d.prefetcher: CONGRATS: SUCCESS in inserting new FT entry found!!
3818000: system.cpu.l1i.prefetcher: INSERTENTRY(): spatio_region:        0X4, pc:   0x402400, physical addr:     0x2400
3818000: system.cpu.l1i.prefetcher: Created FT entry with:   0x402400
3818000: system.cpu.l1i.prefetcher: CONGRATS: SUCCESS in inserting new FT entry found!!
3884000: system.cpu.l1i.prefetcher: INSERTENTRY(): spatio_region:        0X4, pc:   0x4024bd, physical addr:     0x2480
3884000: system.cpu.l1i.prefetcher: Created FT entry with:   0x4024bd
3884000: system.cpu.l1i.prefetcher: CONGRATS: SUCCESS in inserting new FT entry found!!
3948000: system.cpu.l1i.prefetcher: INSERTENTRY(): spatio_region:        0X4, pc:   0x4024c0, physical addr:     0x24c0
3948000: system.cpu.l1i.prefetcher: Created FT entry with:   0x4024c0
3948000: system.cpu.l1i.prefetcher: CONGRATS: SUCCESS in inserting new FT entry found!!
4012000: system.cpu.l1i.prefetcher: INSERTENTRY(): spatio_region:        0X4, pc:   0x402500, physical addr:     0x2500
4012000: system.cpu.l1i.prefetcher: Created FT entry with:   0x402500
4012000: system.cpu.l1i.prefetcher: CONGRATS: SUCCESS in inserting new FT entry found!!
4076000: system.cpu.l1i.prefetcher: INSERTENTRY(): spatio_region:        0X5, pc:   0x402a13, physical addr:     0x2a00
4076000: system.cpu.l1i.prefetcher: Created FT entry with:   0x402a13
4076000: system.cpu.l1i.prefetcher: CONGRATS: SUCCESS in inserting new FT entry found!!
4140000: system.cpu.l1i.prefetcher: INSERTENTRY(): spatio_region:        0X5, pc:   0x402a40, physical addr:     0x2a40
4140000: system.cpu.l1i.prefetcher: Created FT entry with:   0x402a40
4140000: system.cpu.l1i.prefetcher: CONGRATS: SUCCESS in inserting new FT entry found!!
4219000: system.cpu.l1i.prefetcher: INSERTENTRY(): spatio_region:        0X3, pc:   0x401ed0, physical addr:     0x1ec0
4219000: system.cpu.l1i.prefetcher: Created FT entry with:   0x401ed0
4219000: system.cpu.l1i.prefetcher: CONGRATS: SUCCESS in inserting new FT entry found!!
4310000: system.cpu.l1i.prefetcher: INSERTENTRY(): spatio_region:        0X3, pc:   0x401f00, physical addr:     0x1f00
4310000: system.cpu.l1i.prefetcher: Created FT entry with:   0x401f00
4310000: system.cpu.l1i.prefetcher: CONGRATS: SUCCESS in inserting new FT entry found!!
4376000: system.cpu.l1i.prefetcher: INSERTENTRY(): spatio_region:        0X3, pc:   0x401f40, physical addr:     0x1f40
4376000: system.cpu.l1i.prefetcher: Created FT entry with:   0x401f40
4376000: system.cpu.l1i.prefetcher: CONGRATS: SUCCESS in inserting new FT entry found!!
4440000: system.cpu.l1i.prefetcher: INSERTENTRY(): spatio_region:        0X3, pc:   0x401f80, physical addr:     0x1f80
4440000: system.cpu.l1i.prefetcher: Created FT entry with:   0x401f80
4440000: system.cpu.l1i.prefetcher: CONGRATS: SUCCESS in inserting new FT entry found!!
4508000: system.cpu.l1i.prefetcher: INSERTENTRY(): spatio_region:        0X3, pc:   0x401fc0, physical addr:     0x1fc0
4508000: system.cpu.l1i.prefetcher: Created FT entry with:   0x401fc0
4508000: system.cpu.l1i.prefetcher: CONGRATS: SUCCESS in inserting new FT entry found!!
4576000: system.cpu.l1i.prefetcher: INSERTENTRY(): spatio_region:        0X4, pc:   0x402000, physical addr:     0x2000
4576000: system.cpu.l1i.prefetcher: Created FT entry with:   0x402000
4576000: system.cpu.l1i.prefetcher: CONGRATS: SUCCESS in inserting new FT entry found!!
4640000: system.cpu.l1i.prefetcher: INSERTENTRY(): spatio_region:        0X4, pc:   0x402094, physical addr:     0x2080
4640000: system.cpu.l1i.prefetcher: Created FT entry with:   0x402094
4640000: system.cpu.l1i.prefetcher: CONGRATS: SUCCESS in inserting new FT entry found!!
4704000: system.cpu.l1i.prefetcher: INSERTENTRY(): spatio_region:        0X4, pc:   0x4020c0, physical addr:     0x20c0
4704000: system.cpu.l1i.prefetcher: Created FT entry with:   0x4020c0
4704000: system.cpu.l1i.prefetcher: CONGRATS: SUCCESS in inserting new FT entry found!!
4781000: system.cpu.l1i.prefetcher: INSERTENTRY(): spatio_region:        0X4, pc:   0x402440, physical addr:     0x2440
4781000: system.cpu.l1i.prefetcher: Created FT entry with:   0x402440
4781000: system.cpu.l1i.prefetcher: CONGRATS: SUCCESS in inserting new FT entry found!!
4886000: system.cpu.l1i.prefetcher: INSERTENTRY(): spatio_region:       0X98, pc:   0x44c4e0, physical addr:    0x4c4c0
4886000: system.cpu.l1i.prefetcher: Created FT entry with:   0x44c4e0
4886000: system.cpu.l1i.prefetcher: CONGRATS: SUCCESS in inserting new FT entry found!!
4950000: system.cpu.l1i.prefetcher: INSERTENTRY(): spatio_region:       0X98, pc:   0x44c500, physical addr:    0x4c500
4950000: system.cpu.l1i.prefetcher: Created FT entry with:   0x44c500
4950000: system.cpu.l1i.prefetcher: CONGRATS: SUCCESS in inserting new FT entry found!!
4958000: system.cpu.l1d.prefetcher: INSERTENTRY(): spatio_region:      0X17C, pc:   0x44c4fc, physical addr:    0xbe7a8
4958000: system.cpu.l1d.prefetcher: Created FT entry with:   0x44c4fc
4958000: system.cpu.l1d.prefetcher: CONGRATS: SUCCESS in inserting new FT entry found!!
5020000: system.cpu.l1d.prefetcher: INSERTENTRY(): spatio_region:      0X17C, pc:   0x44c500, physical addr:    0xbe7c0
5020000: system.cpu.l1d.prefetcher: Created FT entry with:   0x44c500
5020000: system.cpu.l1d.prefetcher: CONGRATS: SUCCESS in inserting new FT entry found!!
5152000: system.cpu.l1d.prefetcher: INSERTENTRY(): spatio_region:      0X17C, pc:   0x44c4fc, physical addr:    0xbe620
5152000: system.cpu.l1d.prefetcher: Created FT entry with:   0x44c4fc
5152000: system.cpu.l1d.prefetcher: CONGRATS: SUCCESS in inserting new FT entry found!!
5242000: system.cpu.l1d.prefetcher: INSERTENTRY(): spatio_region:      0X17C, pc:   0x44c51c, physical addr:    0xbe640
5242000: system.cpu.l1d.prefetcher: Created FT entry with:   0x44c51c
5242000: system.cpu.l1d.prefetcher: CONGRATS: SUCCESS in inserting new FT entry found!!
5330000: system.cpu.l1d.prefetcher: INSERTENTRY(): spatio_region:      0X183, pc:   0x4023f5, physical addr:    0xc1dc0
5330000: system.cpu.l1d.prefetcher: Created FT entry with:   0x4023f5
5330000: system.cpu.l1d.prefetcher: CONGRATS: SUCCESS in inserting new FT entry found!!
5347000: system.cpu.l1d.prefetcher: INSERTENTRY(): spatio_region:      0X17D, pc:   0x44c4fc, physical addr:    0xbe888
5347000: system.cpu.l1d.prefetcher: Created FT entry with:   0x44c4fc
5347000: system.cpu.l1d.prefetcher: CONGRATS: SUCCESS in inserting new FT entry found!!
5440000: system.cpu.l1d.prefetcher: INSERTENTRY(): spatio_region:      0X187, pc:   0x44c548, physical addr:    0xc3d80
5440000: system.cpu.l1d.prefetcher: Created FT entry with:   0x44c548
5440000: system.cpu.l1d.prefetcher: CONGRATS: SUCCESS in inserting new FT entry found!!
5500000: system.cpu.l1d.prefetcher: INSERTENTRY(): spatio_region:      0X17C, pc:   0x44c4fc, physical addr:    0xbe4d0
5500000: system.cpu.l1d.prefetcher: Created FT entry with:   0x44c4fc
5500000: system.cpu.l1d.prefetcher: CONGRATS: SUCCESS in inserting new FT entry found!!
5646000: system.cpu.l1d.prefetcher: INSERTENTRY(): spatio_region:      0X17C, pc:   0x44c4fc, physical addr:    0xbe770
5646000: system.cpu.l1d.prefetcher: Created FT entry with:   0x44c4fc
5646000: system.cpu.l1d.prefetcher: CONGRATS: SUCCESS in inserting new FT entry found!!
5847000: system.cpu.l1d.prefetcher: INSERTENTRY(): spatio_region:          0, pc:   0x402491, physical addr:      0x2e8
5847000: system.cpu.l1d.prefetcher: Created FT entry with:   0x402491
5847000: system.cpu.l1d.prefetcher: CONGRATS: SUCCESS in inserting new FT entry found!!
5861000: system.cpu.l1i.prefetcher: INSERTENTRY(): spatio_region:        0X4, pc:   0x402540, physical addr:     0x2540
5861000: system.cpu.l1i.prefetcher: Created FT entry with:   0x402540
5861000: system.cpu.l1i.prefetcher: CONGRATS: SUCCESS in inserting new FT entry found!!
5964000: system.cpu.l1i.prefetcher: INSERTENTRY(): spatio_region:       0X43, pc:   0x421ac0, physical addr:    0x21ac0
5964000: system.cpu.l1i.prefetcher: Created FT entry with:   0x421ac0
5964000: system.cpu.l1i.prefetcher: CONGRATS: SUCCESS in inserting new FT entry found!!
6055000: system.cpu.l1i.prefetcher: INSERTENTRY(): spatio_region:       0X43, pc:   0x421b00, physical addr:    0x21b00
6055000: system.cpu.l1i.prefetcher: Created FT entry with:   0x421b00
6055000: system.cpu.l1i.prefetcher: CONGRATS: SUCCESS in inserting new FT entry found!!
6119000: system.cpu.l1i.prefetcher: INSERTENTRY(): spatio_region:       0X43, pc:   0x421b40, physical addr:    0x21b40
6119000: system.cpu.l1i.prefetcher: Created FT entry with:   0x421b40
6119000: system.cpu.l1i.prefetcher: CONGRATS: SUCCESS in inserting new FT entry found!!
6192000: system.cpu.l1d.prefetcher: INSERTENTRY(): spatio_region:      0X17E, pc:   0x402498, physical addr:    0xbf0d0
6192000: system.cpu.l1d.prefetcher: Created FT entry with:   0x402498
6192000: system.cpu.l1d.prefetcher: CONGRATS: SUCCESS in inserting new FT entry found!!
6205000: system.cpu.l1d.prefetcher: Updated AGT entry with:          0
6297000: system.cpu.l1i.prefetcher: INSERTENTRY(): spatio_region:       0X43, pc:   0x421c30, physical addr:    0x21c00
6297000: system.cpu.l1i.prefetcher: Created FT entry with:   0x421c30
6297000: system.cpu.l1i.prefetcher: CONGRATS: SUCCESS in inserting new FT entry found!!
6388000: system.cpu.l1i.prefetcher: INSERTENTRY(): spatio_region:       0X43, pc:   0x421c40, physical addr:    0x21c40
6388000: system.cpu.l1i.prefetcher: Created FT entry with:   0x421c40
6388000: system.cpu.l1i.prefetcher: CONGRATS: SUCCESS in inserting new FT entry found!!
6452000: system.cpu.l1i.prefetcher: INSERTENTRY(): spatio_region:       0X43, pc:   0x421c80, physical addr:    0x21c80
6452000: system.cpu.l1i.prefetcher: Created FT entry with:   0x421c80
6452000: system.cpu.l1i.prefetcher: CONGRATS: SUCCESS in inserting new FT entry found!!
6544000: system.cpu.l1i.prefetcher: INSERTENTRY(): spatio_region:      0X109, pc:   0x484bc0, physical addr:    0x84bc0
6544000: system.cpu.l1i.prefetcher: Created FT entry with:   0x484bc0
6544000: system.cpu.l1i.prefetcher: CONGRATS: SUCCESS in inserting new FT entry found!!
6621000: system.cpu.l1i.prefetcher: INSERTENTRY(): spatio_region:      0X109, pc:   0x484c00, physical addr:    0x84c00
6621000: system.cpu.l1i.prefetcher: Created FT entry with:   0x484c00
6621000: system.cpu.l1i.prefetcher: CONGRATS: SUCCESS in inserting new FT entry found!!
6713000: system.cpu.l1i.prefetcher: INSERTENTRY(): spatio_region:       0X43, pc:   0x421bd0, physical addr:    0x21bc0
6713000: system.cpu.l1i.prefetcher: Created FT entry with:   0x421bd0
6713000: system.cpu.l1i.prefetcher: CONGRATS: SUCCESS in inserting new FT entry found!!
6803000: system.cpu.l1d.prefetcher: INSERTENTRY(): spatio_region:      0X17E, pc:   0x402498, physical addr:    0xbf0b8
6803000: system.cpu.l1d.prefetcher: Created FT entry with:   0x402498
6803000: system.cpu.l1d.prefetcher: CONGRATS: SUCCESS in inserting new FT entry found!!
6804000: system.cpu.l1d.prefetcher: Updated AGT entry with:          0
6909000: system.cpu.l1i.prefetcher: INSERTENTRY(): spatio_region:       0X44, pc:   0x4226a0, physical addr:    0x22680
6909000: system.cpu.l1i.prefetcher: Created FT entry with:   0x4226a0
6909000: system.cpu.l1i.prefetcher: CONGRATS: SUCCESS in inserting new FT entry found!!
7000000: system.cpu.l1i.prefetcher: INSERTENTRY(): spatio_region:       0X44, pc:   0x4226c0, physical addr:    0x226c0
7000000: system.cpu.l1i.prefetcher: Created FT entry with:   0x4226c0
7000000: system.cpu.l1i.prefetcher: CONGRATS: SUCCESS in inserting new FT entry found!!
7064000: system.cpu.l1i.prefetcher: INSERTENTRY(): spatio_region:       0X44, pc:   0x422700, physical addr:    0x22700
7064000: system.cpu.l1i.prefetcher: Created FT entry with:   0x422700
7064000: system.cpu.l1i.prefetcher: CONGRATS: SUCCESS in inserting new FT entry found!!
7132000: system.cpu.l1i.prefetcher: INSERTENTRY(): spatio_region:       0X44, pc:   0x422740, physical addr:    0x22740
7132000: system.cpu.l1i.prefetcher: Created FT entry with:   0x422740
7132000: system.cpu.l1i.prefetcher: CONGRATS: SUCCESS in inserting new FT entry found!!
7198000: system.cpu.l1i.prefetcher: INSERTENTRY(): spatio_region:       0X44, pc:   0x422780, physical addr:    0x22780
7198000: system.cpu.l1i.prefetcher: Created FT entry with:   0x422780
7198000: system.cpu.l1i.prefetcher: CONGRATS: SUCCESS in inserting new FT entry found!!
7290000: system.cpu.l1i.prefetcher: INSERTENTRY(): spatio_region:      0X109, pc:   0x484e60, physical addr:    0x84e40
7290000: system.cpu.l1i.prefetcher: Created FT entry with:   0x484e60
7290000: system.cpu.l1i.prefetcher: CONGRATS: SUCCESS in inserting new FT entry found!!
7354000: system.cpu.l1i.prefetcher: INSERTENTRY(): spatio_region:      0X109, pc:   0x484e80, physical addr:    0x84e80
7354000: system.cpu.l1i.prefetcher: Created FT entry with:   0x484e80
7354000: system.cpu.l1i.prefetcher: CONGRATS: SUCCESS in inserting new FT entry found!!
7418000: system.cpu.l1i.prefetcher: INSERTENTRY(): spatio_region:      0X109, pc:   0x484ec0, physical addr:    0x84ec0
7418000: system.cpu.l1i.prefetcher: Created FT entry with:   0x484ec0
7418000: system.cpu.l1i.prefetcher: CONGRATS: SUCCESS in inserting new FT entry found!!
7486000: system.cpu.l1i.prefetcher: INSERTENTRY(): spatio_region:      0X109, pc:   0x484f00, physical addr:    0x84f00
7486000: system.cpu.l1i.prefetcher: Created FT entry with:   0x484f00
7486000: system.cpu.l1i.prefetcher: CONGRATS: SUCCESS in inserting new FT entry found!!
7582000: system.cpu.l1i.prefetcher: INSERTENTRY(): spatio_region:       0X43, pc:   0x421b80, physical addr:    0x21b80
7582000: system.cpu.l1i.prefetcher: Created FT entry with:   0x421b80
7582000: system.cpu.l1i.prefetcher: CONGRATS: SUCCESS in inserting new FT entry found!!
7683000: system.cpu.l1d.prefetcher: Updated AGT entry with:          0
7684000: system.cpu.l1d.prefetcher: Updated AGT entry with:          0
7788000: system.cpu.l1i.prefetcher: INSERTENTRY(): spatio_region:       0XE0, pc:   0x470280, physical addr:    0x70280
7788000: system.cpu.l1i.prefetcher: Created FT entry with:   0x470280
7788000: system.cpu.l1i.prefetcher: CONGRATS: SUCCESS in inserting new FT entry found!!
8125000: system.cpu.l1i.prefetcher: INSERTENTRY(): spatio_region:       0XE0, pc:   0x4702c0, physical addr:    0x702c0
8125000: system.cpu.l1i.prefetcher: Created FT entry with:   0x4702c0
8125000: system.cpu.l1i.prefetcher: CONGRATS: SUCCESS in inserting new FT entry found!!
8189000: system.cpu.l1i.prefetcher: INSERTENTRY(): spatio_region:       0XE0, pc:   0x470300, physical addr:    0x70300
8189000: system.cpu.l1i.prefetcher: Created FT entry with:   0x470300
8189000: system.cpu.l1i.prefetcher: CONGRATS: SUCCESS in inserting new FT entry found!!
8281000: system.cpu.l1i.prefetcher: INSERTENTRY(): spatio_region:       0X44, pc:   0x422600, physical addr:    0x22600
8281000: system.cpu.l1i.prefetcher: Created FT entry with:   0x422600
8281000: system.cpu.l1i.prefetcher: CONGRATS: SUCCESS in inserting new FT entry found!!
8358000: system.cpu.l1i.prefetcher: INSERTENTRY(): spatio_region:       0X44, pc:   0x422640, physical addr:    0x22640
8358000: system.cpu.l1i.prefetcher: Created FT entry with:   0x422640
8358000: system.cpu.l1i.prefetcher: CONGRATS: SUCCESS in inserting new FT entry found!!
8469000: system.cpu.l1d.prefetcher: Updated AGT entry with:          0
8547000: system.cpu.l1i.prefetcher: INSERTENTRY(): spatio_region:      0X109, pc:   0x484e20, physical addr:    0x84e00
8547000: system.cpu.l1i.prefetcher: Created FT entry with:   0x484e20
8547000: system.cpu.l1i.prefetcher: CONGRATS: SUCCESS in inserting new FT entry found!!
8672000: system.cpu.l1i.prefetcher: INSERTENTRY(): spatio_region:       0X44, pc:   0x4227c0, physical addr:    0x227c0
8672000: system.cpu.l1i.prefetcher: Created FT entry with:   0x4227c0
8672000: system.cpu.l1i.prefetcher: CONGRATS: SUCCESS in inserting new FT entry found!!
8736000: system.cpu.l1i.prefetcher: INSERTENTRY(): spatio_region:       0X45, pc:   0x422800, physical addr:    0x22800
8736000: system.cpu.l1i.prefetcher: Created FT entry with:   0x422800
8736000: system.cpu.l1i.prefetcher: CONGRATS: SUCCESS in inserting new FT entry found!!
8804000: system.cpu.l1i.prefetcher: INSERTENTRY(): spatio_region:       0X45, pc:   0x422840, physical addr:    0x22840
8804000: system.cpu.l1i.prefetcher: Created FT entry with:   0x422840
8804000: system.cpu.l1i.prefetcher: CONGRATS: SUCCESS in inserting new FT entry found!!
8896000: system.cpu.l1i.prefetcher: INSERTENTRY(): spatio_region:       0X44, pc:   0x4224d0, physical addr:    0x224c0
8896000: system.cpu.l1i.prefetcher: Created FT entry with:   0x4224d0
8896000: system.cpu.l1i.prefetcher: CONGRATS: SUCCESS in inserting new FT entry found!!
8960000: system.cpu.l1i.prefetcher: INSERTENTRY(): spatio_region:       0X44, pc:   0x422500, physical addr:    0x22500
8960000: system.cpu.l1i.prefetcher: Created FT entry with:   0x422500
8960000: system.cpu.l1i.prefetcher: CONGRATS: SUCCESS in inserting new FT entry found!!
9024000: system.cpu.l1i.prefetcher: INSERTENTRY(): spatio_region:       0X44, pc:   0x422540, physical addr:    0x22540
9024000: system.cpu.l1i.prefetcher: Created FT entry with:   0x422540
9024000: system.cpu.l1i.prefetcher: CONGRATS: SUCCESS in inserting new FT entry found!!
9097000: system.cpu.l1d.prefetcher: INSERTENTRY(): spatio_region:      0X17E, pc:   0x402498, physical addr:    0xbf078
9097000: system.cpu.l1d.prefetcher: Created FT entry with:   0x402498
9097000: system.cpu.l1d.prefetcher: CONGRATS: SUCCESS in inserting new FT entry found!!
9098000: system.cpu.l1d.prefetcher: Updated AGT entry with:          0
9199000: system.cpu.l1i.prefetcher: INSERTENTRY(): spatio_region:       0X43, pc:   0x421cc0, physical addr:    0x21cc0
9199000: system.cpu.l1i.prefetcher: Created FT entry with:   0x421cc0
9199000: system.cpu.l1i.prefetcher: CONGRATS: SUCCESS in inserting new FT entry found!!
9294000: system.cpu.l1i.prefetcher: INSERTENTRY(): spatio_region:       0X43, pc:   0x421d00, physical addr:    0x21d00
9294000: system.cpu.l1i.prefetcher: Created FT entry with:   0x421d00
9294000: system.cpu.l1i.prefetcher: CONGRATS: SUCCESS in inserting new FT entry found!!
9386000: system.cpu.l1i.prefetcher: INSERTENTRY(): spatio_region:       0X44, pc:   0x4224b0, physical addr:    0x22480
9386000: system.cpu.l1i.prefetcher: Created FT entry with:   0x4224b0
9386000: system.cpu.l1i.prefetcher: CONGRATS: SUCCESS in inserting new FT entry found!!
9461000: system.cpu.l1i.prefetcher: INSERTENTRY(): spatio_region:       0X44, pc:   0x422580, physical addr:    0x22580
9461000: system.cpu.l1i.prefetcher: Created FT entry with:   0x422580
9461000: system.cpu.l1i.prefetcher: CONGRATS: SUCCESS in inserting new FT entry found!!
9553000: system.cpu.l1i.prefetcher: INSERTENTRY(): spatio_region:       0XDC, pc:   0x46e320, physical addr:    0x6e300
9553000: system.cpu.l1i.prefetcher: Created FT entry with:   0x46e320
9553000: system.cpu.l1i.prefetcher: CONGRATS: SUCCESS in inserting new FT entry found!!
9630000: system.cpu.l1i.prefetcher: INSERTENTRY(): spatio_region:       0XDC, pc:   0x46e340, physical addr:    0x6e340
9630000: system.cpu.l1i.prefetcher: Created FT entry with:   0x46e340
9630000: system.cpu.l1i.prefetcher: CONGRATS: SUCCESS in inserting new FT entry found!!
9694000: system.cpu.l1i.prefetcher: INSERTENTRY(): spatio_region:       0XDC, pc:   0x46e380, physical addr:    0x6e380
9694000: system.cpu.l1i.prefetcher: Created FT entry with:   0x46e380
9694000: system.cpu.l1i.prefetcher: CONGRATS: SUCCESS in inserting new FT entry found!!
9768000: system.cpu.l1d.prefetcher: Updated AGT entry with:          0
9769000: system.cpu.l1d.prefetcher: Updated AGT entry with:          0
9873000: system.cpu.l1i.prefetcher: INSERTENTRY(): spatio_region:       0X45, pc:   0x422910, physical addr:    0x22900
9873000: system.cpu.l1i.prefetcher: Created FT entry with:   0x422910
9873000: system.cpu.l1i.prefetcher: CONGRATS: SUCCESS in inserting new FT entry found!!
9937000: system.cpu.l1i.prefetcher: INSERTENTRY(): spatio_region:       0X45, pc:   0x422940, physical addr:    0x22940
9937000: system.cpu.l1i.prefetcher: Created FT entry with:   0x422940
9937000: system.cpu.l1i.prefetcher: CONGRATS: SUCCESS in inserting new FT entry found!!
10001000: system.cpu.l1i.prefetcher: INSERTENTRY(): spatio_region:       0X45, pc:   0x422980, physical addr:    0x22980
10001000: system.cpu.l1i.prefetcher: Created FT entry with:   0x422980
10001000: system.cpu.l1i.prefetcher: CONGRATS: SUCCESS in inserting new FT entry found!!
10147000: system.cpu.l1d.prefetcher: Updated AGT entry with:          0
10212000: system.cpu.l1i.prefetcher: INSERTENTRY(): spatio_region:       0XDC, pc:   0x46e260, physical addr:    0x6e240
10212000: system.cpu.l1i.prefetcher: Created FT entry with:   0x46e260
10212000: system.cpu.l1i.prefetcher: CONGRATS: SUCCESS in inserting new FT entry found!!
10276000: system.cpu.l1i.prefetcher: INSERTENTRY(): spatio_region:       0XDC, pc:   0x46e280, physical addr:    0x6e280
10276000: system.cpu.l1i.prefetcher: Created FT entry with:   0x46e280
10276000: system.cpu.l1i.prefetcher: CONGRATS: SUCCESS in inserting new FT entry found!!
10340000: system.cpu.l1i.prefetcher: INSERTENTRY(): spatio_region:       0XDC, pc:   0x46e2c0, physical addr:    0x6e2c0
10340000: system.cpu.l1i.prefetcher: Created FT entry with:   0x46e2c0
10340000: system.cpu.l1i.prefetcher: CONGRATS: SUCCESS in inserting new FT entry found!!
10432000: system.cpu.l1i.prefetcher: INSERTENTRY(): spatio_region:       0XDF, pc:   0x46fb70, physical addr:    0x6fb40
10432000: system.cpu.l1i.prefetcher: Created FT entry with:   0x46fb70
10432000: system.cpu.l1i.prefetcher: CONGRATS: SUCCESS in inserting new FT entry found!!
10496000: system.cpu.l1i.prefetcher: INSERTENTRY(): spatio_region:       0XDF, pc:   0x46fb80, physical addr:    0x6fb80
10496000: system.cpu.l1i.prefetcher: Created FT entry with:   0x46fb80
10496000: system.cpu.l1i.prefetcher: CONGRATS: SUCCESS in inserting new FT entry found!!
10560000: system.cpu.l1i.prefetcher: INSERTENTRY(): spatio_region:       0XDF, pc:   0x46fbc0, physical addr:    0x6fbc0
10560000: system.cpu.l1i.prefetcher: Created FT entry with:   0x46fbc0
10560000: system.cpu.l1i.prefetcher: CONGRATS: SUCCESS in inserting new FT entry found!!
10656000: system.cpu.l1i.prefetcher: INSERTENTRY(): spatio_region:       0X45, pc:   0x422880, physical addr:    0x22880
10656000: system.cpu.l1i.prefetcher: Created FT entry with:   0x422880
10656000: system.cpu.l1i.prefetcher: CONGRATS: SUCCESS in inserting new FT entry found!!
10724000: system.cpu.l1i.prefetcher: INSERTENTRY(): spatio_region:       0X45, pc:   0x4228c0, physical addr:    0x228c0
10724000: system.cpu.l1i.prefetcher: Created FT entry with:   0x4228c0
10724000: system.cpu.l1i.prefetcher: CONGRATS: SUCCESS in inserting new FT entry found!!
10815000: system.cpu.l1d.prefetcher: INSERTENTRY(): spatio_region:      0X17E, pc:   0x402498, physical addr:    0xbf038
10815000: system.cpu.l1d.prefetcher: Created FT entry with:   0x402498
10815000: system.cpu.l1d.prefetcher: CONGRATS: SUCCESS in inserting new FT entry found!!
10816000: system.cpu.l1d.prefetcher: Updated AGT entry with:          0
10916000: system.cpu.l1i.prefetcher: INSERTENTRY(): spatio_region:       0X45, pc:   0x4229c0, physical addr:    0x229c0
10916000: system.cpu.l1i.prefetcher: Created FT entry with:   0x4229c0
10916000: system.cpu.l1i.prefetcher: CONGRATS: SUCCESS in inserting new FT entry found!!
11013000: system.cpu.l1i.prefetcher: INSERTENTRY(): spatio_region:       0X44, pc:   0x4225c0, physical addr:    0x225c0
11013000: system.cpu.l1i.prefetcher: Created FT entry with:   0x4225c0
11013000: system.cpu.l1i.prefetcher: CONGRATS: SUCCESS in inserting new FT entry found!!
11154000: system.cpu.l1i.prefetcher: INSERTENTRY(): spatio_region:       0XDC, pc:   0x46e220, physical addr:    0x6e200
11154000: system.cpu.l1i.prefetcher: Created FT entry with:   0x46e220
11154000: system.cpu.l1i.prefetcher: CONGRATS: SUCCESS in inserting new FT entry found!!
11247000: system.cpu.l1d.prefetcher: Updated AGT entry with:          0
11248000: system.cpu.l1d.prefetcher: Updated AGT entry with:          0
11372000: system.cpu.l1i.prefetcher: INSERTENTRY(): spatio_region:        0X4, pc:   0x4025cb, physical addr:     0x25c0
11372000: system.cpu.l1i.prefetcher: Created FT entry with:   0x4025cb
11372000: system.cpu.l1i.prefetcher: CONGRATS: SUCCESS in inserting new FT entry found!!
11463000: system.cpu.l1i.prefetcher: INSERTENTRY(): spatio_region:        0X4, pc:   0x402600, physical addr:     0x2600
11463000: system.cpu.l1i.prefetcher: Created FT entry with:   0x402600
11463000: system.cpu.l1i.prefetcher: CONGRATS: SUCCESS in inserting new FT entry found!!
11527000: system.cpu.l1i.prefetcher: INSERTENTRY(): spatio_region:        0X5, pc:   0x402c20, physical addr:     0x2c00
11527000: system.cpu.l1i.prefetcher: Created FT entry with:   0x402c20
11527000: system.cpu.l1i.prefetcher: CONGRATS: SUCCESS in inserting new FT entry found!!
11591000: system.cpu.l1i.prefetcher: INSERTENTRY(): spatio_region:        0X5, pc:   0x402c40, physical addr:     0x2c40
11591000: system.cpu.l1i.prefetcher: Created FT entry with:   0x402c40
11591000: system.cpu.l1i.prefetcher: CONGRATS: SUCCESS in inserting new FT entry found!!
11616000: system.cpu.l1d.prefetcher: INSERTENTRY(): spatio_region:      0X180, pc:   0x402c39, physical addr:    0xc0180
11616000: system.cpu.l1d.prefetcher: Created FT entry with:   0x402c39
11616000: system.cpu.l1d.prefetcher: CONGRATS: SUCCESS in inserting new FT entry found!!
11655000: system.cpu.l1i.prefetcher: INSERTENTRY(): spatio_region:        0X5, pc:   0x402c80, physical addr:     0x2c80
11655000: system.cpu.l1i.prefetcher: Created FT entry with:   0x402c80
11655000: system.cpu.l1i.prefetcher: CONGRATS: SUCCESS in inserting new FT entry found!!
11722000: system.cpu.l1i.prefetcher: INSERTENTRY(): spatio_region:        0X5, pc:   0x402cc0, physical addr:     0x2cc0
11722000: system.cpu.l1i.prefetcher: Created FT entry with:   0x402cc0
11722000: system.cpu.l1i.prefetcher: CONGRATS: SUCCESS in inserting new FT entry found!!
11723000: system.cpu.l1d.prefetcher: Updated AGT entry with:          0
11786000: system.cpu.l1i.prefetcher: INSERTENTRY(): spatio_region:        0X5, pc:   0x402d00, physical addr:     0x2d00
11786000: system.cpu.l1i.prefetcher: Created FT entry with:   0x402d00
11786000: system.cpu.l1i.prefetcher: CONGRATS: SUCCESS in inserting new FT entry found!!
11862000: system.cpu.l1d.prefetcher: Updated AGT entry with:          0
11863000: system.cpu.l1d.prefetcher: Updated AGT entry with:          0
11864000: system.cpu.l1i.prefetcher: INSERTENTRY(): spatio_region:        0X5, pc:   0x402d40, physical addr:     0x2d40
11864000: system.cpu.l1i.prefetcher: Created FT entry with:   0x402d40
11864000: system.cpu.l1i.prefetcher: CONGRATS: SUCCESS in inserting new FT entry found!!
11942000: system.cpu.l1d.prefetcher: Updated AGT entry with:          0
11943000: system.cpu.l1d.prefetcher: Updated AGT entry with:          0
12013000: system.cpu.l1d.prefetcher: Updated AGT entry with:          0
12014000: system.cpu.l1d.prefetcher: Updated AGT entry with:          0
12084000: system.cpu.l1d.prefetcher: Updated AGT entry with:          0
12085000: system.cpu.l1d.prefetcher: Updated AGT entry with:          0
12155000: system.cpu.l1d.prefetcher: Updated AGT entry with:          0
12156000: system.cpu.l1d.prefetcher: Updated AGT entry with:          0
12226000: system.cpu.l1d.prefetcher: Updated AGT entry with:          0
12293000: system.cpu.l1d.prefetcher: INSERTENTRY(): spatio_region:      0X180, pc:   0x402ca4, physical addr:    0xc0220
12293000: system.cpu.l1d.prefetcher: Created FT entry with:   0x402ca4
12293000: system.cpu.l1d.prefetcher: CONGRATS: SUCCESS in inserting new FT entry found!!
12456000: system.cpu.l1i.prefetcher: INSERTENTRY(): spatio_region:        0X5, pc:   0x402d80, physical addr:     0x2d80
12456000: system.cpu.l1i.prefetcher: Created FT entry with:   0x402d80
12456000: system.cpu.l1i.prefetcher: CONGRATS: SUCCESS in inserting new FT entry found!!
12520000: system.cpu.l1i.prefetcher: INSERTENTRY(): spatio_region:       0X92, pc:   0x449390, physical addr:    0x49380
12520000: system.cpu.l1i.prefetcher: Created FT entry with:   0x449390
12520000: system.cpu.l1i.prefetcher: CONGRATS: SUCCESS in inserting new FT entry found!!
12597000: system.cpu.l1i.prefetcher: INSERTENTRY(): spatio_region:       0X92, pc:   0x4493c0, physical addr:    0x493c0
12597000: system.cpu.l1i.prefetcher: Created FT entry with:   0x4493c0
12597000: system.cpu.l1i.prefetcher: CONGRATS: SUCCESS in inserting new FT entry found!!
12604000: system.cpu.l1d.prefetcher: INSERTENTRY(): spatio_region:      0X187, pc:   0x449396, physical addr:    0xc3cb8
12604000: system.cpu.l1d.prefetcher: Created FT entry with:   0x449396
12604000: system.cpu.l1d.prefetcher: CONGRATS: SUCCESS in inserting new FT entry found!!
12608000: system.cpu.l1d.prefetcher: INSERTENTRY(): spatio_region:      0X183, pc:   0x44939e, physical addr:    0xc1f38
12608000: system.cpu.l1d.prefetcher: Created FT entry with:   0x44939e
12608000: system.cpu.l1d.prefetcher: CONGRATS: SUCCESS in inserting new FT entry found!!
12661000: system.cpu.l1i.prefetcher: INSERTENTRY(): spatio_region:       0X92, pc:   0x449400, physical addr:    0x49400
12661000: system.cpu.l1i.prefetcher: Created FT entry with:   0x449400
12661000: system.cpu.l1i.prefetcher: CONGRATS: SUCCESS in inserting new FT entry found!!
12729000: system.cpu.l1i.prefetcher: INSERTENTRY(): spatio_region:       0X92, pc:   0x449440, physical addr:    0x49440
12729000: system.cpu.l1i.prefetcher: Created FT entry with:   0x449440
12729000: system.cpu.l1i.prefetcher: CONGRATS: SUCCESS in inserting new FT entry found!!
12793000: system.cpu.l1i.prefetcher: INSERTENTRY(): spatio_region:       0XE2, pc:   0x471690, physical addr:    0x71680
12793000: system.cpu.l1i.prefetcher: Created FT entry with:   0x471690
12793000: system.cpu.l1i.prefetcher: CONGRATS: SUCCESS in inserting new FT entry found!!
12857000: system.cpu.l1i.prefetcher: INSERTENTRY(): spatio_region:       0XE2, pc:   0x4716c0, physical addr:    0x716c0
12857000: system.cpu.l1i.prefetcher: Created FT entry with:   0x4716c0
12857000: system.cpu.l1i.prefetcher: CONGRATS: SUCCESS in inserting new FT entry found!!
12925000: system.cpu.l1i.prefetcher: INSERTENTRY(): spatio_region:       0XE2, pc:   0x471700, physical addr:    0x71700
12925000: system.cpu.l1i.prefetcher: Created FT entry with:   0x471700
12925000: system.cpu.l1i.prefetcher: CONGRATS: SUCCESS in inserting new FT entry found!!
12999000: system.cpu.l1i.prefetcher: INSERTENTRY(): spatio_region:       0X92, pc:   0x449480, physical addr:    0x49480
12999000: system.cpu.l1i.prefetcher: Created FT entry with:   0x449480
12999000: system.cpu.l1i.prefetcher: CONGRATS: SUCCESS in inserting new FT entry found!!
13114000: system.cpu.l1i.prefetcher: INSERTENTRY(): spatio_region:       0XE2, pc:   0x471740, physical addr:    0x71740
13114000: system.cpu.l1i.prefetcher: Created FT entry with:   0x471740
13114000: system.cpu.l1i.prefetcher: CONGRATS: SUCCESS in inserting new FT entry found!!
13187000: system.cpu.l1i.prefetcher: INSERTENTRY(): spatio_region:       0X92, pc:   0x4494c0, physical addr:    0x494c0
13187000: system.cpu.l1i.prefetcher: Created FT entry with:   0x4494c0
13187000: system.cpu.l1i.prefetcher: CONGRATS: SUCCESS in inserting new FT entry found!!
13260000: system.cpu.l1d.prefetcher: INSERTENTRY(): spatio_region:      0X184, pc:   0x402ce0, physical addr:    0xc2320
13260000: system.cpu.l1d.prefetcher: Created FT entry with:   0x402ce0
13260000: system.cpu.l1d.prefetcher: CONGRATS: SUCCESS in inserting new FT entry found!!
13314000: system.cpu.l1i.prefetcher: INSERTENTRY(): spatio_region:        0X5, pc:   0x402dc0, physical addr:     0x2dc0
13314000: system.cpu.l1i.prefetcher: Created FT entry with:   0x402dc0
13314000: system.cpu.l1i.prefetcher: CONGRATS: SUCCESS in inserting new FT entry found!!
13341000: system.cpu.l1d.prefetcher: INSERTENTRY(): spatio_region:      0X180, pc:   0x402d32, physical addr:    0xc0670
13341000: system.cpu.l1d.prefetcher: Created FT entry with:   0x402d32
13341000: system.cpu.l1d.prefetcher: CONGRATS: SUCCESS in inserting new FT entry found!!
13342000: system.cpu.l1d.prefetcher: Updated AGT entry with:          0
13405000: system.cpu.l1i.prefetcher: INSERTENTRY(): spatio_region:        0X2, pc:   0x401060, physical addr:     0x1040
13405000: system.cpu.l1i.prefetcher: Created FT entry with:   0x401060
13405000: system.cpu.l1i.prefetcher: CONGRATS: SUCCESS in inserting new FT entry found!!
13406000: system.cpu.l1d.prefetcher: Updated AGT entry with:          0
13496000: system.cpu.l1i.prefetcher: INSERTENTRY(): spatio_region:        0X2, pc:   0x401080, physical addr:     0x1080
13496000: system.cpu.l1i.prefetcher: Created FT entry with:   0x401080
13496000: system.cpu.l1i.prefetcher: CONGRATS: SUCCESS in inserting new FT entry found!!
13560000: system.cpu.l1i.prefetcher: INSERTENTRY(): spatio_region:       0X8B, pc:   0x445ba0, physical addr:    0x45b80
13560000: system.cpu.l1i.prefetcher: Created FT entry with:   0x445ba0
13560000: system.cpu.l1i.prefetcher: CONGRATS: SUCCESS in inserting new FT entry found!!
13651000: system.cpu.l1i.prefetcher: INSERTENTRY(): spatio_region:       0X8B, pc:   0x445bc0, physical addr:    0x45bc0
13651000: system.cpu.l1i.prefetcher: Created FT entry with:   0x445bc0
13651000: system.cpu.l1i.prefetcher: CONGRATS: SUCCESS in inserting new FT entry found!!
13660000: system.cpu.l1d.prefetcher: INSERTENTRY(): spatio_region:      0X178, pc:   0x445bbb, physical addr:    0xbc0c0
13660000: system.cpu.l1d.prefetcher: Created FT entry with:   0x445bbb
13660000: system.cpu.l1d.prefetcher: CONGRATS: SUCCESS in inserting new FT entry found!!
13661000: system.cpu.l1d.prefetcher: Updated AGT entry with:          0
13715000: system.cpu.l1i.prefetcher: INSERTENTRY(): spatio_region:       0X8B, pc:   0x445c00, physical addr:    0x45c00
13715000: system.cpu.l1i.prefetcher: Created FT entry with:   0x445c00
13715000: system.cpu.l1i.prefetcher: CONGRATS: SUCCESS in inserting new FT entry found!!
13784000: system.cpu.l1i.prefetcher: INSERTENTRY(): spatio_region:       0X8B, pc:   0x445c40, physical addr:    0x45c40
13784000: system.cpu.l1i.prefetcher: Created FT entry with:   0x445c40
13784000: system.cpu.l1i.prefetcher: CONGRATS: SUCCESS in inserting new FT entry found!!
13785000: system.cpu.l1d.prefetcher: INSERTENTRY(): spatio_region:      0X18B, pc:   0x445bc3, physical addr:    0xc5820
13785000: system.cpu.l1d.prefetcher: Created FT entry with:   0x445bc3
13785000: system.cpu.l1d.prefetcher: CONGRATS: SUCCESS in inserting new FT entry found!!
13786000: system.cpu.l1d.prefetcher: INSERTENTRY(): spatio_region:      0X18B, pc:   0x445bc3, physical addr:    0xc5828
13786000: system.cpu.l1d.prefetcher: Created FT entry with:   0x445bc3
13786000: system.cpu.l1d.prefetcher: CONGRATS: SUCCESS in inserting new FT entry found!!
13894000: system.cpu.l1i.prefetcher: INSERTENTRY(): spatio_region:        0X5, pc:   0x402e00, physical addr:     0x2e00
13894000: system.cpu.l1i.prefetcher: Created FT entry with:   0x402e00
13894000: system.cpu.l1i.prefetcher: CONGRATS: SUCCESS in inserting new FT entry found!!
13897000: system.cpu.l1d.prefetcher: INSERTENTRY(): spatio_region:      0X18B, pc:   0x402d65, physical addr:    0xc5888
13897000: system.cpu.l1d.prefetcher: Created FT entry with:   0x402d65
13897000: system.cpu.l1d.prefetcher: CONGRATS: SUCCESS in inserting new FT entry found!!
13900000: system.cpu.l1d.prefetcher: Updated AGT entry with:          0
13994000: system.cpu.l1i.prefetcher: INSERTENTRY(): spatio_region:        0X5, pc:   0x402e40, physical addr:     0x2e40
13994000: system.cpu.l1i.prefetcher: Created FT entry with:   0x402e40
13994000: system.cpu.l1i.prefetcher: CONGRATS: SUCCESS in inserting new FT entry found!!
14072000: system.cpu.l1d.prefetcher: Updated AGT entry with:          0
14081000: system.cpu.l1d.prefetcher: INSERTENTRY(): spatio_region:      0X182, pc:   0x402dcf, physical addr:    0xc12b8
14081000: system.cpu.l1d.prefetcher: Created FT entry with:   0x402dcf
14081000: system.cpu.l1d.prefetcher: CONGRATS: SUCCESS in inserting new FT entry found!!
14081000: system.cpu.l1i.prefetcher: INSERTENTRY(): spatio_region:        0X5, pc:   0x402e80, physical addr:     0x2e80
14081000: system.cpu.l1i.prefetcher: Created FT entry with:   0x402e80
14081000: system.cpu.l1i.prefetcher: CONGRATS: SUCCESS in inserting new FT entry found!!
14165000: system.cpu.l1d.prefetcher: INSERTENTRY(): spatio_region:      0X182, pc:   0x402df5, physical addr:    0xc1290
14165000: system.cpu.l1d.prefetcher: Created FT entry with:   0x402df5
14165000: system.cpu.l1d.prefetcher: CONGRATS: SUCCESS in inserting new FT entry found!!
14214000: system.cpu.l1i.prefetcher: INSERTENTRY(): spatio_region:        0X5, pc:   0x402ec0, physical addr:     0x2ec0
14214000: system.cpu.l1i.prefetcher: Created FT entry with:   0x402ec0
14214000: system.cpu.l1i.prefetcher: CONGRATS: SUCCESS in inserting new FT entry found!!
14282000: system.cpu.l1i.prefetcher: INSERTENTRY(): spatio_region:        0X4, pc:   0x402640, physical addr:     0x2640
14282000: system.cpu.l1i.prefetcher: Created FT entry with:   0x402640
14282000: system.cpu.l1i.prefetcher: CONGRATS: SUCCESS in inserting new FT entry found!!
14288000: system.cpu.l1d.prefetcher: Updated AGT entry with:          0
14346000: system.cpu.l1i.prefetcher: INSERTENTRY(): spatio_region:        0X5, pc:   0x40284e, physical addr:     0x2840
14346000: system.cpu.l1i.prefetcher: Created FT entry with:   0x40284e
14346000: system.cpu.l1i.prefetcher: CONGRATS: SUCCESS in inserting new FT entry found!!
14410000: system.cpu.l1i.prefetcher: INSERTENTRY(): spatio_region:        0X5, pc:   0x402880, physical addr:     0x2880
14410000: system.cpu.l1i.prefetcher: Created FT entry with:   0x402880
14410000: system.cpu.l1i.prefetcher: CONGRATS: SUCCESS in inserting new FT entry found!!
14474000: system.cpu.l1i.prefetcher: INSERTENTRY(): spatio_region:       0X9C, pc:   0x44e470, physical addr:    0x4e440
14474000: system.cpu.l1i.prefetcher: Created FT entry with:   0x44e470
14474000: system.cpu.l1i.prefetcher: CONGRATS: SUCCESS in inserting new FT entry found!!
14565000: system.cpu.l1i.prefetcher: INSERTENTRY(): spatio_region:       0X9C, pc:   0x44e480, physical addr:    0x4e480
14565000: system.cpu.l1i.prefetcher: Created FT entry with:   0x44e480
14565000: system.cpu.l1i.prefetcher: CONGRATS: SUCCESS in inserting new FT entry found!!
14629000: system.cpu.l1i.prefetcher: INSERTENTRY(): spatio_region:       0X9C, pc:   0x44e4c0, physical addr:    0x4e4c0
14629000: system.cpu.l1i.prefetcher: Created FT entry with:   0x44e4c0
14629000: system.cpu.l1i.prefetcher: CONGRATS: SUCCESS in inserting new FT entry found!!
14636000: system.cpu.l1d.prefetcher: Updated AGT entry with:          0
14693000: system.cpu.l1i.prefetcher: INSERTENTRY(): spatio_region:       0XE2, pc:   0x471440, physical addr:    0x71440
14693000: system.cpu.l1i.prefetcher: Created FT entry with:   0x471440
14693000: system.cpu.l1i.prefetcher: CONGRATS: SUCCESS in inserting new FT entry found!!
14757000: system.cpu.l1i.prefetcher: INSERTENTRY(): spatio_region:       0XE2, pc:   0x471480, physical addr:    0x71480
14757000: system.cpu.l1i.prefetcher: Created FT entry with:   0x471480
14757000: system.cpu.l1i.prefetcher: CONGRATS: SUCCESS in inserting new FT entry found!!
14826000: system.cpu.l1i.prefetcher: INSERTENTRY(): spatio_region:       0XE2, pc:   0x4714c0, physical addr:    0x714c0
14826000: system.cpu.l1i.prefetcher: Created FT entry with:   0x4714c0
14826000: system.cpu.l1i.prefetcher: CONGRATS: SUCCESS in inserting new FT entry found!!
14895000: system.cpu.l1i.prefetcher: INSERTENTRY(): spatio_region:       0X9C, pc:   0x44e500, physical addr:    0x4e500
14895000: system.cpu.l1i.prefetcher: Created FT entry with:   0x44e500
14895000: system.cpu.l1i.prefetcher: CONGRATS: SUCCESS in inserting new FT entry found!!
14898000: system.cpu.l1d.prefetcher: Updated AGT entry with:          0
14965000: system.cpu.l1i.prefetcher: INSERTENTRY(): spatio_region:       0X9C, pc:   0x44e540, physical addr:    0x4e540
14965000: system.cpu.l1i.prefetcher: Created FT entry with:   0x44e540
14965000: system.cpu.l1i.prefetcher: CONGRATS: SUCCESS in inserting new FT entry found!!
15133000: system.cpu.l1i.prefetcher: INSERTENTRY(): spatio_region:       0X9C, pc:   0x44e580, physical addr:    0x4e580
15133000: system.cpu.l1i.prefetcher: Created FT entry with:   0x44e580
15133000: system.cpu.l1i.prefetcher: CONGRATS: SUCCESS in inserting new FT entry found!!
15223000: system.cpu.l1i.prefetcher: INSERTENTRY(): spatio_region:        0X5, pc:   0x4028c0, physical addr:     0x28c0
15223000: system.cpu.l1i.prefetcher: Created FT entry with:   0x4028c0
15223000: system.cpu.l1i.prefetcher: CONGRATS: SUCCESS in inserting new FT entry found!!
15320000: system.cpu.l1i.prefetcher: INSERTENTRY(): spatio_region:        0X4, pc:   0x402680, physical addr:     0x2680
15320000: system.cpu.l1i.prefetcher: Created FT entry with:   0x402680
15320000: system.cpu.l1i.prefetcher: CONGRATS: SUCCESS in inserting new FT entry found!!
15321000: system.cpu.l1d.prefetcher: INSERTENTRY(): spatio_region:      0X17D, pc:   0x402600, physical addr:    0xbef80
15321000: system.cpu.l1d.prefetcher: Created FT entry with:   0x402600
15321000: system.cpu.l1d.prefetcher: CONGRATS: SUCCESS in inserting new FT entry found!!
15406000: system.cpu.l1i.prefetcher: INSERTENTRY(): spatio_region:        0X4, pc:   0x4026c0, physical addr:     0x26c0
15406000: system.cpu.l1i.prefetcher: Created FT entry with:   0x4026c0
15406000: system.cpu.l1i.prefetcher: CONGRATS: SUCCESS in inserting new FT entry found!!
15488000: system.cpu.l1i.prefetcher: INSERTENTRY(): spatio_region:       0X9C, pc:   0x44e5c0, physical addr:    0x4e5c0
15488000: system.cpu.l1i.prefetcher: Created FT entry with:   0x44e5c0
15488000: system.cpu.l1i.prefetcher: CONGRATS: SUCCESS in inserting new FT entry found!!
15554000: system.cpu.l1i.prefetcher: INSERTENTRY(): spatio_region:       0X9C, pc:   0x44e600, physical addr:    0x4e600
15554000: system.cpu.l1i.prefetcher: Created FT entry with:   0x44e600
15554000: system.cpu.l1i.prefetcher: CONGRATS: SUCCESS in inserting new FT entry found!!
15559000: system.cpu.l1d.prefetcher: INSERTENTRY(): spatio_region:      0X181, pc:   0x44e5e0, physical addr:    0xc0a68
15559000: system.cpu.l1d.prefetcher: Created FT entry with:   0x44e5e0
15559000: system.cpu.l1d.prefetcher: CONGRATS: SUCCESS in inserting new FT entry found!!
15618000: system.cpu.l1i.prefetcher: INSERTENTRY(): spatio_region:       0X9C, pc:   0x44e640, physical addr:    0x4e640
15618000: system.cpu.l1i.prefetcher: Created FT entry with:   0x44e640
15618000: system.cpu.l1i.prefetcher: CONGRATS: SUCCESS in inserting new FT entry found!!
15964000: system.cpu.l1i.prefetcher: INSERTENTRY(): spatio_region:       0XF7, pc:   0x47bd50, physical addr:    0x7bd40
15964000: system.cpu.l1i.prefetcher: Created FT entry with:   0x47bd50
15964000: system.cpu.l1i.prefetcher: CONGRATS: SUCCESS in inserting new FT entry found!!
16041000: system.cpu.l1i.prefetcher: INSERTENTRY(): spatio_region:       0XF7, pc:   0x47bd80, physical addr:    0x7bd80
16041000: system.cpu.l1i.prefetcher: Created FT entry with:   0x47bd80
16041000: system.cpu.l1i.prefetcher: CONGRATS: SUCCESS in inserting new FT entry found!!
16048000: system.cpu.l1d.prefetcher: Updated AGT entry with:          0
16051000: system.cpu.l1d.prefetcher: Updated AGT entry with:          0
16109000: system.cpu.l1i.prefetcher: INSERTENTRY(): spatio_region:       0XF7, pc:   0x47bdc0, physical addr:    0x7bdc0
16109000: system.cpu.l1i.prefetcher: Created FT entry with:   0x47bdc0
16109000: system.cpu.l1i.prefetcher: CONGRATS: SUCCESS in inserting new FT entry found!!
16124000: system.cpu.l1d.prefetcher: INSERTENTRY(): spatio_region:      0X18D, pc:   0x47bd61, physical addr:    0xc6c68
16124000: system.cpu.l1d.prefetcher: Created FT entry with:   0x47bd61
16124000: system.cpu.l1d.prefetcher: CONGRATS: SUCCESS in inserting new FT entry found!!
16173000: system.cpu.l1i.prefetcher: INSERTENTRY(): spatio_region:       0XF7, pc:   0x47be00, physical addr:    0x7be00
16173000: system.cpu.l1i.prefetcher: Created FT entry with:   0x47be00
16173000: system.cpu.l1i.prefetcher: CONGRATS: SUCCESS in inserting new FT entry found!!
16256000: system.cpu.l1i.prefetcher: INSERTENTRY(): spatio_region:       0XF7, pc:   0x47be40, physical addr:    0x7be40
16256000: system.cpu.l1i.prefetcher: Created FT entry with:   0x47be40
16256000: system.cpu.l1i.prefetcher: CONGRATS: SUCCESS in inserting new FT entry found!!
16340000: system.cpu.l1d.prefetcher: Updated AGT entry with:          0
16577000: system.cpu.l1i.prefetcher: INSERTENTRY(): spatio_region:       0XF7, pc:   0x47be80, physical addr:    0x7be80
16577000: system.cpu.l1i.prefetcher: Created FT entry with:   0x47be80
16577000: system.cpu.l1i.prefetcher: CONGRATS: SUCCESS in inserting new FT entry found!!
16641000: system.cpu.l1i.prefetcher: INSERTENTRY(): spatio_region:       0X3E, pc:   0x41f150, physical addr:    0x1f140
16641000: system.cpu.l1i.prefetcher: Created FT entry with:   0x41f150
16641000: system.cpu.l1i.prefetcher: CONGRATS: SUCCESS in inserting new FT entry found!!
16718000: system.cpu.l1i.prefetcher: INSERTENTRY(): spatio_region:       0X3E, pc:   0x41f180, physical addr:    0x1f180
16718000: system.cpu.l1i.prefetcher: Created FT entry with:   0x41f180
16718000: system.cpu.l1i.prefetcher: CONGRATS: SUCCESS in inserting new FT entry found!!
16724000: system.cpu.l1d.prefetcher: INSERTENTRY(): spatio_region:      0X17E, pc:   0x41f156, physical addr:    0xbf790
16724000: system.cpu.l1d.prefetcher: Created FT entry with:   0x41f156
16724000: system.cpu.l1d.prefetcher: CONGRATS: SUCCESS in inserting new FT entry found!!
16782000: system.cpu.l1i.prefetcher: INSERTENTRY(): spatio_region:       0X3E, pc:   0x41f1c0, physical addr:    0x1f1c0
16782000: system.cpu.l1i.prefetcher: Created FT entry with:   0x41f1c0
16782000: system.cpu.l1i.prefetcher: CONGRATS: SUCCESS in inserting new FT entry found!!
16873000: system.cpu.l1i.prefetcher: INSERTENTRY(): spatio_region:       0X3E, pc:   0x41f2c0, physical addr:    0x1f2c0
16873000: system.cpu.l1i.prefetcher: Created FT entry with:   0x41f2c0
16873000: system.cpu.l1i.prefetcher: CONGRATS: SUCCESS in inserting new FT entry found!!
16937000: system.cpu.l1i.prefetcher: INSERTENTRY(): spatio_region:       0X3E, pc:   0x41f300, physical addr:    0x1f300
16937000: system.cpu.l1i.prefetcher: Created FT entry with:   0x41f300
16937000: system.cpu.l1i.prefetcher: CONGRATS: SUCCESS in inserting new FT entry found!!
17001000: system.cpu.l1i.prefetcher: INSERTENTRY(): spatio_region:       0X3D, pc:   0x41eb90, physical addr:    0x1eb80
17001000: system.cpu.l1i.prefetcher: Created FT entry with:   0x41eb90
17001000: system.cpu.l1i.prefetcher: CONGRATS: SUCCESS in inserting new FT entry found!!
17065000: system.cpu.l1i.prefetcher: INSERTENTRY(): spatio_region:       0X3D, pc:   0x41ebc0, physical addr:    0x1ebc0
17065000: system.cpu.l1i.prefetcher: Created FT entry with:   0x41ebc0
17065000: system.cpu.l1i.prefetcher: CONGRATS: SUCCESS in inserting new FT entry found!!
17070000: system.cpu.l1d.prefetcher: INSERTENTRY(): spatio_region:      0X17E, pc:   0x41eb94, physical addr:    0xbf6e4
17070000: system.cpu.l1d.prefetcher: Created FT entry with:   0x41eb94
17070000: system.cpu.l1d.prefetcher: CONGRATS: SUCCESS in inserting new FT entry found!!
17129000: system.cpu.l1i.prefetcher: INSERTENTRY(): spatio_region:       0X3D, pc:   0x41ec00, physical addr:    0x1ec00
17129000: system.cpu.l1i.prefetcher: Created FT entry with:   0x41ec00
17129000: system.cpu.l1i.prefetcher: CONGRATS: SUCCESS in inserting new FT entry found!!
17220000: system.cpu.l1i.prefetcher: INSERTENTRY(): spatio_region:       0X3D, pc:   0x41ece0, physical addr:    0x1ecc0
17220000: system.cpu.l1i.prefetcher: Created FT entry with:   0x41ece0
17220000: system.cpu.l1i.prefetcher: CONGRATS: SUCCESS in inserting new FT entry found!!
17284000: system.cpu.l1i.prefetcher: INSERTENTRY(): spatio_region:       0X3D, pc:   0x41ed00, physical addr:    0x1ed00
17284000: system.cpu.l1i.prefetcher: Created FT entry with:   0x41ed00
17284000: system.cpu.l1i.prefetcher: CONGRATS: SUCCESS in inserting new FT entry found!!
17290000: system.cpu.l1d.prefetcher: Updated AGT entry with:          0
17348000: system.cpu.l1i.prefetcher: INSERTENTRY(): spatio_region:       0X3C, pc:   0x41e160, physical addr:    0x1e140
17348000: system.cpu.l1i.prefetcher: Created FT entry with:   0x41e160
17348000: system.cpu.l1i.prefetcher: CONGRATS: SUCCESS in inserting new FT entry found!!
17412000: system.cpu.l1i.prefetcher: INSERTENTRY(): spatio_region:       0X3C, pc:   0x41e180, physical addr:    0x1e180
17412000: system.cpu.l1i.prefetcher: Created FT entry with:   0x41e180
17412000: system.cpu.l1i.prefetcher: CONGRATS: SUCCESS in inserting new FT entry found!!
17476000: system.cpu.l1i.prefetcher: INSERTENTRY(): spatio_region:       0X3C, pc:   0x41e1c0, physical addr:    0x1e1c0
17476000: system.cpu.l1i.prefetcher: Created FT entry with:   0x41e1c0
17476000: system.cpu.l1i.prefetcher: CONGRATS: SUCCESS in inserting new FT entry found!!
17484000: system.cpu.l1d.prefetcher: Updated AGT entry with:          0
17493000: system.cpu.l1d.prefetcher: INSERTENTRY(): spatio_region:      0X17F, pc:   0x41e1ad, physical addr:    0xbf818
17493000: system.cpu.l1d.prefetcher: Created FT entry with:   0x41e1ad
17493000: system.cpu.l1d.prefetcher: CONGRATS: SUCCESS in inserting new FT entry found!!
17544000: system.cpu.l1i.prefetcher: INSERTENTRY(): spatio_region:       0X3C, pc:   0x41e200, physical addr:    0x1e200
17544000: system.cpu.l1i.prefetcher: Created FT entry with:   0x41e200
17544000: system.cpu.l1i.prefetcher: CONGRATS: SUCCESS in inserting new FT entry found!!
17559000: system.cpu.l1d.prefetcher: INSERTENTRY(): spatio_region:      0X17F, pc:   0x41e1ad, physical addr:    0xbf810
17559000: system.cpu.l1d.prefetcher: Created FT entry with:   0x41e1ad
17559000: system.cpu.l1d.prefetcher: CONGRATS: SUCCESS in inserting new FT entry found!!
17641000: system.cpu.l1i.prefetcher: INSERTENTRY(): spatio_region:       0X3C, pc:   0x41e240, physical addr:    0x1e240
17641000: system.cpu.l1i.prefetcher: Created FT entry with:   0x41e240
17641000: system.cpu.l1i.prefetcher: CONGRATS: SUCCESS in inserting new FT entry found!!
17718000: system.cpu.l1d.prefetcher: INSERTENTRY(): spatio_region:      0X17F, pc:   0x41e1ad, physical addr:    0xbf848
17718000: system.cpu.l1d.prefetcher: Created FT entry with:   0x41e1ad
17718000: system.cpu.l1d.prefetcher: CONGRATS: SUCCESS in inserting new FT entry found!!
17719000: system.cpu.l1d.prefetcher: Updated AGT entry with:          0
17849000: system.cpu.l1d.prefetcher: Updated AGT entry with:          0
17850000: system.cpu.l1d.prefetcher: Updated AGT entry with:          0
17953000: system.cpu.l1d.prefetcher: Updated AGT entry with:          0
17954000: system.cpu.l1d.prefetcher: Updated AGT entry with:          0
18057000: system.cpu.l1d.prefetcher: Updated AGT entry with:          0
18058000: system.cpu.l1d.prefetcher: Updated AGT entry with:          0
18161000: system.cpu.l1d.prefetcher: Updated AGT entry with:          0
18162000: system.cpu.l1d.prefetcher: Updated AGT entry with:          0
18265000: system.cpu.l1d.prefetcher: Updated AGT entry with:          0
18266000: system.cpu.l1d.prefetcher: Updated AGT entry with:          0
18369000: system.cpu.l1d.prefetcher: Updated AGT entry with:          0
18370000: system.cpu.l1d.prefetcher: Updated AGT entry with:          0
18473000: system.cpu.l1d.prefetcher: Updated AGT entry with:          0
18474000: system.cpu.l1d.prefetcher: INSERTENTRY(): spatio_region:      0X17F, pc:   0x41e1ad, physical addr:    0xbfa00
18474000: system.cpu.l1d.prefetcher: Created FT entry with:   0x41e1ad
18474000: system.cpu.l1d.prefetcher: CONGRATS: SUCCESS in inserting new FT entry found!!
18577000: system.cpu.l1d.prefetcher: INSERTENTRY(): spatio_region:      0X17F, pc:   0x41e1ad, physical addr:    0xbfa48
18577000: system.cpu.l1d.prefetcher: Created FT entry with:   0x41e1ad
18577000: system.cpu.l1d.prefetcher: CONGRATS: SUCCESS in inserting new FT entry found!!
18578000: system.cpu.l1d.prefetcher: INSERTENTRY(): spatio_region:      0X17F, pc:   0x41e1ad, physical addr:    0xbfa40
18578000: system.cpu.l1d.prefetcher: Created FT entry with:   0x41e1ad
18578000: system.cpu.l1d.prefetcher: CONGRATS: SUCCESS in inserting new FT entry found!!
18681000: system.cpu.l1d.prefetcher: INSERTENTRY(): spatio_region:      0X17F, pc:   0x41e1ad, physical addr:    0xbfa88
18681000: system.cpu.l1d.prefetcher: Created FT entry with:   0x41e1ad
18681000: system.cpu.l1d.prefetcher: CONGRATS: SUCCESS in inserting new FT entry found!!
18682000: system.cpu.l1d.prefetcher: INSERTENTRY(): spatio_region:      0X17F, pc:   0x41e1ad, physical addr:    0xbfa80
18682000: system.cpu.l1d.prefetcher: Created FT entry with:   0x41e1ad
18682000: system.cpu.l1d.prefetcher: CONGRATS: SUCCESS in inserting new FT entry found!!
18785000: system.cpu.l1d.prefetcher: INSERTENTRY(): spatio_region:      0X17F, pc:   0x41e1ad, physical addr:    0xbfac8
18785000: system.cpu.l1d.prefetcher: Created FT entry with:   0x41e1ad
18785000: system.cpu.l1d.prefetcher: CONGRATS: SUCCESS in inserting new FT entry found!!
18786000: system.cpu.l1d.prefetcher: Updated AGT entry with:          0
18889000: system.cpu.l1d.prefetcher: Updated AGT entry with:          0
18890000: system.cpu.l1d.prefetcher: Updated AGT entry with:          0
18993000: system.cpu.l1d.prefetcher: Updated AGT entry with:          0
18994000: system.cpu.l1d.prefetcher: Updated AGT entry with:          0
19097000: system.cpu.l1d.prefetcher: Updated AGT entry with:          0
19098000: system.cpu.l1d.prefetcher: Updated AGT entry with:          0
19201000: system.cpu.l1d.prefetcher: Updated AGT entry with:          0
19202000: system.cpu.l1d.prefetcher: Updated AGT entry with:          0
19305000: system.cpu.l1d.prefetcher: Updated AGT entry with:          0
19306000: system.cpu.l1d.prefetcher: Updated AGT entry with:          0
19409000: system.cpu.l1d.prefetcher: Updated AGT entry with:          0
19410000: system.cpu.l1d.prefetcher: Updated AGT entry with:          0
19526000: system.cpu.l1d.prefetcher: Updated AGT entry with:          0
19527000: system.cpu.l1d.prefetcher: Updated AGT entry with:          0
19630000: system.cpu.l1d.prefetcher: Updated AGT entry with:          0
19631000: system.cpu.l1d.prefetcher: Updated AGT entry with:          0
19734000: system.cpu.l1d.prefetcher: Updated AGT entry with:          0
19735000: system.cpu.l1d.prefetcher: Updated AGT entry with:          0
19838000: system.cpu.l1d.prefetcher: Updated AGT entry with:          0
19839000: system.cpu.l1d.prefetcher: INSERTENTRY(): spatio_region:      0X17F, pc:   0x41e1ad, physical addr:    0xbfd40
19839000: system.cpu.l1d.prefetcher: Created FT entry with:   0x41e1ad
19839000: system.cpu.l1d.prefetcher: CONGRATS: SUCCESS in inserting new FT entry found!!
19942000: system.cpu.l1d.prefetcher: INSERTENTRY(): spatio_region:      0X17F, pc:   0x41e1ad, physical addr:    0xbfd88
19942000: system.cpu.l1d.prefetcher: Created FT entry with:   0x41e1ad
19942000: system.cpu.l1d.prefetcher: CONGRATS: SUCCESS in inserting new FT entry found!!
19943000: system.cpu.l1d.prefetcher: INSERTENTRY(): spatio_region:      0X17F, pc:   0x41e1ad, physical addr:    0xbfd80
19943000: system.cpu.l1d.prefetcher: Created FT entry with:   0x41e1ad
19943000: system.cpu.l1d.prefetcher: CONGRATS: SUCCESS in inserting new FT entry found!!
20046000: system.cpu.l1d.prefetcher: INSERTENTRY(): spatio_region:      0X17F, pc:   0x41e1ad, physical addr:    0xbfdc8
20046000: system.cpu.l1d.prefetcher: Created FT entry with:   0x41e1ad
20046000: system.cpu.l1d.prefetcher: CONGRATS: SUCCESS in inserting new FT entry found!!
20047000: system.cpu.l1d.prefetcher: INSERTENTRY(): spatio_region:      0X17F, pc:   0x41e1ad, physical addr:    0xbfdc0
20047000: system.cpu.l1d.prefetcher: Created FT entry with:   0x41e1ad
20047000: system.cpu.l1d.prefetcher: CONGRATS: SUCCESS in inserting new FT entry found!!
20150000: system.cpu.l1d.prefetcher: INSERTENTRY(): spatio_region:      0X17F, pc:   0x41e1ad, physical addr:    0xbfe08
20150000: system.cpu.l1d.prefetcher: Created FT entry with:   0x41e1ad
20150000: system.cpu.l1d.prefetcher: CONGRATS: SUCCESS in inserting new FT entry found!!
20151000: system.cpu.l1d.prefetcher: INSERTENTRY(): spatio_region:      0X17F, pc:   0x41e1ad, physical addr:    0xbfe00
20151000: system.cpu.l1d.prefetcher: Created FT entry with:   0x41e1ad
20151000: system.cpu.l1d.prefetcher: CONGRATS: SUCCESS in inserting new FT entry found!!
20254000: system.cpu.l1d.prefetcher: INSERTENTRY(): spatio_region:      0X17F, pc:   0x41e1ad, physical addr:    0xbfe48
20254000: system.cpu.l1d.prefetcher: Created FT entry with:   0x41e1ad
20254000: system.cpu.l1d.prefetcher: CONGRATS: SUCCESS in inserting new FT entry found!!
20255000: system.cpu.l1d.prefetcher: INSERTENTRY(): spatio_region:      0X17F, pc:   0x41e1ad, physical addr:    0xbfe40
20255000: system.cpu.l1d.prefetcher: Created FT entry with:   0x41e1ad
20255000: system.cpu.l1d.prefetcher: CONGRATS: SUCCESS in inserting new FT entry found!!
20358000: system.cpu.l1d.prefetcher: INSERTENTRY(): spatio_region:      0X17F, pc:   0x41e1ad, physical addr:    0xbfe88
20358000: system.cpu.l1d.prefetcher: Created FT entry with:   0x41e1ad
20358000: system.cpu.l1d.prefetcher: CONGRATS: SUCCESS in inserting new FT entry found!!
20359000: system.cpu.l1d.prefetcher: INSERTENTRY(): spatio_region:      0X17F, pc:   0x41e1ad, physical addr:    0xbfe80
20359000: system.cpu.l1d.prefetcher: Created FT entry with:   0x41e1ad
20359000: system.cpu.l1d.prefetcher: CONGRATS: SUCCESS in inserting new FT entry found!!
20462000: system.cpu.l1d.prefetcher: INSERTENTRY(): spatio_region:      0X17F, pc:   0x41e1ad, physical addr:    0xbfec8
20462000: system.cpu.l1d.prefetcher: Created FT entry with:   0x41e1ad
20462000: system.cpu.l1d.prefetcher: CONGRATS: SUCCESS in inserting new FT entry found!!
20463000: system.cpu.l1d.prefetcher: INSERTENTRY(): spatio_region:      0X17F, pc:   0x41e1ad, physical addr:    0xbfec0
20463000: system.cpu.l1d.prefetcher: Created FT entry with:   0x41e1ad
20463000: system.cpu.l1d.prefetcher: CONGRATS: SUCCESS in inserting new FT entry found!!
20566000: system.cpu.l1d.prefetcher: INSERTENTRY(): spatio_region:      0X17F, pc:   0x41e1ad, physical addr:    0xbff08
20566000: system.cpu.l1d.prefetcher: Created FT entry with:   0x41e1ad
20566000: system.cpu.l1d.prefetcher: CONGRATS: SUCCESS in inserting new FT entry found!!
20567000: system.cpu.l1d.prefetcher: INSERTENTRY(): spatio_region:      0X17F, pc:   0x41e1ad, physical addr:    0xbff00
20567000: system.cpu.l1d.prefetcher: Created FT entry with:   0x41e1ad
20567000: system.cpu.l1d.prefetcher: CONGRATS: SUCCESS in inserting new FT entry found!!
20670000: system.cpu.l1d.prefetcher: INSERTENTRY(): spatio_region:      0X17F, pc:   0x41e1ad, physical addr:    0xbff48
20670000: system.cpu.l1d.prefetcher: Created FT entry with:   0x41e1ad
20670000: system.cpu.l1d.prefetcher: CONGRATS: SUCCESS in inserting new FT entry found!!
20671000: system.cpu.l1d.prefetcher: INSERTENTRY(): spatio_region:      0X17F, pc:   0x41e1ad, physical addr:    0xbff40
20671000: system.cpu.l1d.prefetcher: Created FT entry with:   0x41e1ad
20671000: system.cpu.l1d.prefetcher: CONGRATS: SUCCESS in inserting new FT entry found!!
20774000: system.cpu.l1d.prefetcher: INSERTENTRY(): spatio_region:      0X17F, pc:   0x41e1ad, physical addr:    0xbff88
20774000: system.cpu.l1d.prefetcher: Created FT entry with:   0x41e1ad
20774000: system.cpu.l1d.prefetcher: CONGRATS: SUCCESS in inserting new FT entry found!!
20775000: system.cpu.l1d.prefetcher: INSERTENTRY(): spatio_region:      0X17F, pc:   0x41e1ad, physical addr:    0xbff80
20775000: system.cpu.l1d.prefetcher: Created FT entry with:   0x41e1ad
20775000: system.cpu.l1d.prefetcher: CONGRATS: SUCCESS in inserting new FT entry found!!
20878000: system.cpu.l1d.prefetcher: INSERTENTRY(): spatio_region:      0X17F, pc:   0x41e1ad, physical addr:    0xbffc8
20878000: system.cpu.l1d.prefetcher: Created FT entry with:   0x41e1ad
20878000: system.cpu.l1d.prefetcher: CONGRATS: SUCCESS in inserting new FT entry found!!
20879000: system.cpu.l1d.prefetcher: INSERTENTRY(): spatio_region:      0X17F, pc:   0x41e1ad, physical addr:    0xbffc0
20879000: system.cpu.l1d.prefetcher: Created FT entry with:   0x41e1ad
20879000: system.cpu.l1d.prefetcher: CONGRATS: SUCCESS in inserting new FT entry found!!
20973000: system.cpu.l1i.prefetcher: INSERTENTRY(): spatio_region:       0X3C, pc:   0x41e280, physical addr:    0x1e280
20973000: system.cpu.l1i.prefetcher: Created FT entry with:   0x41e280
20973000: system.cpu.l1i.prefetcher: CONGRATS: SUCCESS in inserting new FT entry found!!
21074000: system.cpu.l1d.prefetcher: INSERTENTRY(): spatio_region:      0X17D, pc:   0x44c4fc, physical addr:    0xbe9a0
21074000: system.cpu.l1d.prefetcher: Created FT entry with:   0x44c4fc
21074000: system.cpu.l1d.prefetcher: CONGRATS: SUCCESS in inserting new FT entry found!!
21172000: system.cpu.l1d.prefetcher: Updated AGT entry with:          0
[...]
59481000: system.cpu.l1i.prefetcher: INSERTENTRY(): spatio_region:       0XB8, pc:   0x45c300, physical addr:    0x5c300
59481000: system.cpu.l1i.prefetcher: Created FT entry with:   0x45c300
59481000: system.cpu.l1i.prefetcher: CONGRATS: SUCCESS in inserting new FT entry found!!
59549000: system.cpu.l1i.prefetcher: INSERTENTRY(): spatio_region:       0XB8, pc:   0x45c340, physical addr:    0x5c340
59549000: system.cpu.l1i.prefetcher: Created FT entry with:   0x45c340
59549000: system.cpu.l1i.prefetcher: CONGRATS: SUCCESS in inserting new FT entry found!!
59620000: system.cpu.l1d.prefetcher: Updated AGT entry with:          0
59697000: system.cpu.l1d.prefetcher: Updated AGT entry with:          0
59773000: system.cpu.l1i.prefetcher: INSERTENTRY(): spatio_region:        0X4, pc:   0x402780, physical addr:     0x2780
59773000: system.cpu.l1i.prefetcher: Created FT entry with:   0x402780
59773000: system.cpu.l1i.prefetcher: CONGRATS: SUCCESS in inserting new FT entry found!!
59864000: system.cpu.l1i.prefetcher: INSERTENTRY(): spatio_region:        0X2, pc:   0x401730, physical addr:     0x1700
59864000: system.cpu.l1i.prefetcher: Created FT entry with:   0x401730
59864000: system.cpu.l1i.prefetcher: CONGRATS: SUCCESS in inserting new FT entry found!!
59946000: system.cpu.l1i.prefetcher: INSERTENTRY(): spatio_region:        0X3, pc:   0x401d80, physical addr:     0x1d80
59946000: system.cpu.l1i.prefetcher: Created FT entry with:   0x401d80
59946000: system.cpu.l1i.prefetcher: CONGRATS: SUCCESS in inserting new FT entry found!!
59970000: system.cpu.l1d.prefetcher: INSERTENTRY(): spatio_region:      0X12A, pc:   0x401d44, physical addr:    0x95030
59970000: system.cpu.l1d.prefetcher: Created FT entry with:   0x401d44
59970000: system.cpu.l1d.prefetcher: CONGRATS: SUCCESS in inserting new FT entry found!!
60010000: system.cpu.l1i.prefetcher: INSERTENTRY(): spatio_region:        0X3, pc:   0x401dc0, physical addr:     0x1dc0
60010000: system.cpu.l1i.prefetcher: Created FT entry with:   0x401dc0
60010000: system.cpu.l1i.prefetcher: CONGRATS: SUCCESS in inserting new FT entry found!!
60069000: system.cpu.l1d.prefetcher: INSERTENTRY(): spatio_region:      0X12A, pc:   0x401d79, physical addr:    0x95040
60069000: system.cpu.l1d.prefetcher: Created FT entry with:   0x401d79
60069000: system.cpu.l1d.prefetcher: CONGRATS: SUCCESS in inserting new FT entry found!!
60073000: system.cpu.l1i.prefetcher: INSERTENTRY(): spatio_region:        0X3, pc:   0x401e00, physical addr:     0x1e00
60073000: system.cpu.l1i.prefetcher: Created FT entry with:   0x401e00
60073000: system.cpu.l1i.prefetcher: CONGRATS: SUCCESS in inserting new FT entry found!!
60139000: system.cpu.l1i.prefetcher: INSERTENTRY(): spatio_region:        0X3, pc:   0x401e40, physical addr:     0x1e40
60139000: system.cpu.l1i.prefetcher: Created FT entry with:   0x401e40
60139000: system.cpu.l1i.prefetcher: CONGRATS: SUCCESS in inserting new FT entry found!!
118548000: system.cpu.l1i.prefetcher: INSERTENTRY(): spatio_region:        0X3, pc:   0x401e80, physical addr:     0x1e80
118548000: system.cpu.l1i.prefetcher: Created FT entry with:   0x401e80
118548000: system.cpu.l1i.prefetcher: CONGRATS: SUCCESS in inserting new FT entry found!!
118629000: system.cpu.l1i.prefetcher: INSERTENTRY(): spatio_region:        0X3, pc:   0x401ec0, physical addr:     0x1ec0
118629000: system.cpu.l1i.prefetcher: Created FT entry with:   0x401ec0
118629000: system.cpu.l1i.prefetcher: CONGRATS: SUCCESS in inserting new FT entry found!!
118644000: system.cpu.l1i.prefetcher: INSERTENTRY(): spatio_region:        0X3, pc:   0x401f00, physical addr:     0x1f00
118644000: system.cpu.l1i.prefetcher: Created FT entry with:   0x401f00
118644000: system.cpu.l1i.prefetcher: CONGRATS: SUCCESS in inserting new FT entry found!!
118715000: system.cpu.l1i.prefetcher: INSERTENTRY(): spatio_region:       0X20, pc:   0x410040, physical addr:    0x10040
118715000: system.cpu.l1i.prefetcher: Created FT entry with:   0x410040
118715000: system.cpu.l1i.prefetcher: CONGRATS: SUCCESS in inserting new FT entry found!!
118735000: system.cpu.l1d.prefetcher: INSERTENTRY(): spatio_region:      0X17D, pc:   0x40ffea, physical addr:    0xbefd8
118735000: system.cpu.l1d.prefetcher: Created FT entry with:   0x40ffea
118735000: system.cpu.l1d.prefetcher: CONGRATS: SUCCESS in inserting new FT entry found!!
118792000: system.cpu.l1i.prefetcher: INSERTENTRY(): spatio_region:       0X20, pc:   0x410080, physical addr:    0x10080
118792000: system.cpu.l1i.prefetcher: Created FT entry with:   0x410080
118792000: system.cpu.l1i.prefetcher: CONGRATS: SUCCESS in inserting new FT entry found!!
118868000: system.cpu.l1i.prefetcher: INSERTENTRY(): spatio_region:       0X20, pc:   0x4100c0, physical addr:    0x100c0
118868000: system.cpu.l1i.prefetcher: Created FT entry with:   0x4100c0
118868000: system.cpu.l1i.prefetcher: CONGRATS: SUCCESS in inserting new FT entry found!!
118940000: system.cpu.l1i.prefetcher: INSERTENTRY(): spatio_region:       0X20, pc:   0x410100, physical addr:    0x10100
118940000: system.cpu.l1i.prefetcher: Created FT entry with:   0x410100
118940000: system.cpu.l1i.prefetcher: CONGRATS: SUCCESS in inserting new FT entry found!!
119019000: system.cpu.l1i.prefetcher: INSERTENTRY(): spatio_region:        0X6, pc:   0x403000, physical addr:     0x3000
119019000: system.cpu.l1i.prefetcher: Created FT entry with:   0x403000
119019000: system.cpu.l1i.prefetcher: CONGRATS: SUCCESS in inserting new FT entry found!!
119096000: system.cpu.l1i.prefetcher: INSERTENTRY(): spatio_region:        0X2, pc:   0x4016e0, physical addr:     0x16c0
119096000: system.cpu.l1i.prefetcher: Created FT entry with:   0x4016e0
119096000: system.cpu.l1i.prefetcher: CONGRATS: SUCCESS in inserting new FT entry found!!
119165000: system.cpu.l1d.prefetcher: Updated AGT entry with:          0
119318000: system.cpu.l1i.prefetcher: INSERTENTRY(): spatio_region:        0X3, pc:   0x401c20, physical addr:     0x1c00
119318000: system.cpu.l1i.prefetcher: Created FT entry with:   0x401c20
119318000: system.cpu.l1i.prefetcher: CONGRATS: SUCCESS in inserting new FT entry found!!
119372000: system.cpu.l1i.prefetcher: INSERTENTRY(): spatio_region:      0X124, pc:   0x492230, physical addr:    0x92200
119372000: system.cpu.l1i.prefetcher: Created FT entry with:   0x492230
119372000: system.cpu.l1i.prefetcher: CONGRATS: SUCCESS in inserting new FT entry found!!
119449000: system.cpu.l1i.prefetcher: INSERTENTRY(): spatio_region:      0X124, pc:   0x492240, physical addr:    0x92240
119449000: system.cpu.l1i.prefetcher: Created FT entry with:   0x492240
119449000: system.cpu.l1i.prefetcher: CONGRATS: SUCCESS in inserting new FT entry found!!
119513000: system.cpu.l1i.prefetcher: INSERTENTRY(): spatio_region:      0X124, pc:   0x492100, physical addr:    0x92100
119513000: system.cpu.l1i.prefetcher: Created FT entry with:   0x492100
119513000: system.cpu.l1i.prefetcher: CONGRATS: SUCCESS in inserting new FT entry found!!
119577000: system.cpu.l1i.prefetcher: INSERTENTRY(): spatio_region:      0X124, pc:   0x492140, physical addr:    0x92140
119577000: system.cpu.l1i.prefetcher: Created FT entry with:   0x492140
119577000: system.cpu.l1i.prefetcher: CONGRATS: SUCCESS in inserting new FT entry found!!
119645000: system.cpu.l1i.prefetcher: INSERTENTRY(): spatio_region:      0X124, pc:   0x492180, physical addr:    0x92180
119645000: system.cpu.l1i.prefetcher: Created FT entry with:   0x492180
119645000: system.cpu.l1i.prefetcher: CONGRATS: SUCCESS in inserting new FT entry found!!
119713000: system.cpu.l1i.prefetcher: INSERTENTRY(): spatio_region:      0X124, pc:   0x4921c0, physical addr:    0x921c0
119713000: system.cpu.l1i.prefetcher: Created FT entry with:   0x4921c0
119713000: system.cpu.l1i.prefetcher: CONGRATS: SUCCESS in inserting new FT entry found!!
119832000: system.cpu.l1i.prefetcher: INSERTENTRY(): spatio_region:        0X6, pc:   0x403040, physical addr:     0x3040
119832000: system.cpu.l1i.prefetcher: Created FT entry with:   0x403040
119832000: system.cpu.l1i.prefetcher: CONGRATS: SUCCESS in inserting new FT entry found!!
119896000: system.cpu.l1i.prefetcher: INSERTENTRY(): spatio_region:      0X128, pc:   0x4946d0, physical addr:    0x946c0
119896000: system.cpu.l1i.prefetcher: Created FT entry with:   0x4946d0
119896000: system.cpu.l1i.prefetcher: CONGRATS: SUCCESS in inserting new FT entry found!!
119973000: system.cpu.l1i.prefetcher: INSERTENTRY(): spatio_region:      0X128, pc:   0x494700, physical addr:    0x94700
119973000: system.cpu.l1i.prefetcher: Created FT entry with:   0x494700
119973000: system.cpu.l1i.prefetcher: CONGRATS: SUCCESS in inserting new FT entry found!!
120041000: system.cpu.l1i.prefetcher: INSERTENTRY(): spatio_region:       0X20, pc:   0x410140, physical addr:    0x10140
120041000: system.cpu.l1i.prefetcher: Created FT entry with:   0x410140
120041000: system.cpu.l1i.prefetcher: CONGRATS: SUCCESS in inserting new FT entry found!!
120135000: system.cpu.l1i.prefetcher: INSERTENTRY(): spatio_region:       0X20, pc:   0x410180, physical addr:    0x10180
120135000: system.cpu.l1i.prefetcher: Created FT entry with:   0x410180
120135000: system.cpu.l1i.prefetcher: CONGRATS: SUCCESS in inserting new FT entry found!!
120201000: system.cpu.l1i.prefetcher: INSERTENTRY(): spatio_region:       0X20, pc:   0x4101c0, physical addr:    0x101c0
120201000: system.cpu.l1i.prefetcher: Created FT entry with:   0x4101c0
120201000: system.cpu.l1i.prefetcher: CONGRATS: SUCCESS in inserting new FT entry found!!
120292000: system.cpu.l1i.prefetcher: INSERTENTRY(): spatio_region:       0X20, pc:   0x410200, physical addr:    0x10200
120292000: system.cpu.l1i.prefetcher: Created FT entry with:   0x410200
120292000: system.cpu.l1i.prefetcher: CONGRATS: SUCCESS in inserting new FT entry found!!
120316000: system.cpu.l1d.prefetcher: Updated AGT entry with:          0
120356000: system.cpu.l1i.prefetcher: INSERTENTRY(): spatio_region:       0X20, pc:   0x410240, physical addr:    0x10240
120356000: system.cpu.l1i.prefetcher: Created FT entry with:   0x410240
120356000: system.cpu.l1i.prefetcher: CONGRATS: SUCCESS in inserting new FT entry found!!
120420000: system.cpu.l1i.prefetcher: INSERTENTRY(): spatio_region:       0X31, pc:   0x4189e0, physical addr:    0x189c0
120420000: system.cpu.l1i.prefetcher: Created FT entry with:   0x4189e0
120420000: system.cpu.l1i.prefetcher: CONGRATS: SUCCESS in inserting new FT entry found!!
120497000: system.cpu.l1i.prefetcher: INSERTENTRY(): spatio_region:       0X31, pc:   0x418a00, physical addr:    0x18a00
120497000: system.cpu.l1i.prefetcher: Created FT entry with:   0x418a00
120497000: system.cpu.l1i.prefetcher: CONGRATS: SUCCESS in inserting new FT entry found!!
120561000: system.cpu.l1i.prefetcher: INSERTENTRY(): spatio_region:       0X31, pc:   0x418a40, physical addr:    0x18a40
120561000: system.cpu.l1i.prefetcher: Created FT entry with:   0x418a40
120561000: system.cpu.l1i.prefetcher: CONGRATS: SUCCESS in inserting new FT entry found!!
120625000: system.cpu.l1i.prefetcher: INSERTENTRY(): spatio_region:       0X30, pc:   0x4186e0, physical addr:    0x186c0
120625000: system.cpu.l1i.prefetcher: Created FT entry with:   0x4186e0
120625000: system.cpu.l1i.prefetcher: CONGRATS: SUCCESS in inserting new FT entry found!!
120689000: system.cpu.l1i.prefetcher: INSERTENTRY(): spatio_region:       0X30, pc:   0x418700, physical addr:    0x18700
120689000: system.cpu.l1i.prefetcher: Created FT entry with:   0x418700
120689000: system.cpu.l1i.prefetcher: CONGRATS: SUCCESS in inserting new FT entry found!!
120753000: system.cpu.l1i.prefetcher: INSERTENTRY(): spatio_region:       0X30, pc:   0x418740, physical addr:    0x18740
120753000: system.cpu.l1i.prefetcher: Created FT entry with:   0x418740
120753000: system.cpu.l1i.prefetcher: CONGRATS: SUCCESS in inserting new FT entry found!!
120817000: system.cpu.l1i.prefetcher: INSERTENTRY(): spatio_region:       0X31, pc:   0x418910, physical addr:    0x18900
120817000: system.cpu.l1i.prefetcher: Created FT entry with:   0x418910
120817000: system.cpu.l1i.prefetcher: CONGRATS: SUCCESS in inserting new FT entry found!!
120881000: system.cpu.l1i.prefetcher: INSERTENTRY(): spatio_region:       0X31, pc:   0x418940, physical addr:    0x18940
120881000: system.cpu.l1i.prefetcher: Created FT entry with:   0x418940
120881000: system.cpu.l1i.prefetcher: CONGRATS: SUCCESS in inserting new FT entry found!!
120949000: system.cpu.l1i.prefetcher: INSERTENTRY(): spatio_region:       0X30, pc:   0x418780, physical addr:    0x18780
120949000: system.cpu.l1i.prefetcher: Created FT entry with:   0x418780
120949000: system.cpu.l1i.prefetcher: CONGRATS: SUCCESS in inserting new FT entry found!!
120953000: system.cpu.l1d.prefetcher: INSERTENTRY(): spatio_region:      0X183, pc:   0x41872e, physical addr:    0xc1c58
120953000: system.cpu.l1d.prefetcher: Created FT entry with:   0x41872e
120953000: system.cpu.l1d.prefetcher: CONGRATS: SUCCESS in inserting new FT entry found!!
121013000: system.cpu.l1i.prefetcher: INSERTENTRY(): spatio_region:       0X30, pc:   0x4187c0, physical addr:    0x187c0
121013000: system.cpu.l1i.prefetcher: Created FT entry with:   0x4187c0
121013000: system.cpu.l1i.prefetcher: CONGRATS: SUCCESS in inserting new FT entry found!!
121047000: system.cpu.l1d.prefetcher: Updated AGT entry with:          0
121077000: system.cpu.l1i.prefetcher: INSERTENTRY(): spatio_region:       0X31, pc:   0x418834, physical addr:    0x18800
121077000: system.cpu.l1i.prefetcher: Created FT entry with:   0x418834
121077000: system.cpu.l1i.prefetcher: CONGRATS: SUCCESS in inserting new FT entry found!!
121141000: system.cpu.l1i.prefetcher: INSERTENTRY(): spatio_region:       0X31, pc:   0x418840, physical addr:    0x18840
121141000: system.cpu.l1i.prefetcher: Created FT entry with:   0x418840
121141000: system.cpu.l1i.prefetcher: CONGRATS: SUCCESS in inserting new FT entry found!!
121207000: system.cpu.l1i.prefetcher: INSERTENTRY(): spatio_region:       0X31, pc:   0x418880, physical addr:    0x18880
121207000: system.cpu.l1i.prefetcher: Created FT entry with:   0x418880
121207000: system.cpu.l1i.prefetcher: CONGRATS: SUCCESS in inserting new FT entry found!!
121271000: system.cpu.l1i.prefetcher: INSERTENTRY(): spatio_region:       0X31, pc:   0x4188c0, physical addr:    0x188c0
121271000: system.cpu.l1i.prefetcher: Created FT entry with:   0x4188c0
121271000: system.cpu.l1i.prefetcher: CONGRATS: SUCCESS in inserting new FT entry found!!
121274000: system.cpu.l1d.prefetcher: Updated AGT entry with:          0
121337000: system.cpu.l1d.prefetcher: Updated AGT entry with:          0
121338000: system.cpu.l1d.prefetcher: Updated AGT entry with:          0
121430000: system.cpu.l1d.prefetcher: Updated AGT entry with:          0
121496000: system.cpu.l1d.prefetcher: Updated AGT entry with:          0
121559000: system.cpu.l1d.prefetcher: Updated AGT entry with:          0
121622000: system.cpu.l1d.prefetcher: Updated AGT entry with:          0
121623000: system.cpu.l1d.prefetcher: Updated AGT entry with:          0
121714000: system.cpu.l1d.prefetcher: Updated AGT entry with:          0
121780000: system.cpu.l1d.prefetcher: Updated AGT entry with:          0
121843000: system.cpu.l1d.prefetcher: Updated AGT entry with:          0
121938000: system.cpu.l1d.prefetcher: INSERTENTRY(): spatio_region:      0X17E, pc:   0x41882b, physical addr:    0xbf568
121938000: system.cpu.l1d.prefetcher: Created FT entry with:   0x41882b
121938000: system.cpu.l1d.prefetcher: CONGRATS: SUCCESS in inserting new FT entry found!!
122036000: system.cpu.l1i.prefetcher: INSERTENTRY(): spatio_region:       0X31, pc:   0x418980, physical addr:    0x18980
122036000: system.cpu.l1i.prefetcher: Created FT entry with:   0x418980
122036000: system.cpu.l1i.prefetcher: CONGRATS: SUCCESS in inserting new FT entry found!!
122139000: system.cpu.l1i.prefetcher: INSERTENTRY(): spatio_region:       0X31, pc:   0x418a80, physical addr:    0x18a80
122139000: system.cpu.l1i.prefetcher: Created FT entry with:   0x418a80
122139000: system.cpu.l1i.prefetcher: CONGRATS: SUCCESS in inserting new FT entry found!!
122203000: system.cpu.l1i.prefetcher: INSERTENTRY(): spatio_region:       0X31, pc:   0x418c58, physical addr:    0x18c40
122203000: system.cpu.l1i.prefetcher: Created FT entry with:   0x418c58
122203000: system.cpu.l1i.prefetcher: CONGRATS: SUCCESS in inserting new FT entry found!!
122280000: system.cpu.l1i.prefetcher: INSERTENTRY(): spatio_region:       0X31, pc:   0x418c80, physical addr:    0x18c80
122280000: system.cpu.l1i.prefetcher: Created FT entry with:   0x418c80
122280000: system.cpu.l1i.prefetcher: CONGRATS: SUCCESS in inserting new FT entry found!!
122350000: system.cpu.l1i.prefetcher: INSERTENTRY(): spatio_region:       0X31, pc:   0x418ac0, physical addr:    0x18ac0
122350000: system.cpu.l1i.prefetcher: Created FT entry with:   0x418ac0
122350000: system.cpu.l1i.prefetcher: CONGRATS: SUCCESS in inserting new FT entry found!!
122418000: system.cpu.l1i.prefetcher: INSERTENTRY(): spatio_region:       0X31, pc:   0x418b00, physical addr:    0x18b00
122418000: system.cpu.l1i.prefetcher: Created FT entry with:   0x418b00
122418000: system.cpu.l1i.prefetcher: CONGRATS: SUCCESS in inserting new FT entry found!!
122492000: system.cpu.l1i.prefetcher: INSERTENTRY(): spatio_region:       0X31, pc:   0x418b40, physical addr:    0x18b40
122492000: system.cpu.l1i.prefetcher: Created FT entry with:   0x418b40
122492000: system.cpu.l1i.prefetcher: CONGRATS: SUCCESS in inserting new FT entry found!!
122574000: system.cpu.l1d.prefetcher: INSERTENTRY(): spatio_region:      0X17E, pc:   0x418ab8, physical addr:    0xbf588
122574000: system.cpu.l1d.prefetcher: Created FT entry with:   0x418ab8
122574000: system.cpu.l1d.prefetcher: CONGRATS: SUCCESS in inserting new FT entry found!!
122647000: system.cpu.l1i.prefetcher: INSERTENTRY(): spatio_region:       0X31, pc:   0x418bb0, physical addr:    0x18b80
122647000: system.cpu.l1i.prefetcher: Created FT entry with:   0x418bb0
122647000: system.cpu.l1i.prefetcher: CONGRATS: SUCCESS in inserting new FT entry found!!
122711000: system.cpu.l1i.prefetcher: INSERTENTRY(): spatio_region:       0X31, pc:   0x418bc0, physical addr:    0x18bc0
122711000: system.cpu.l1i.prefetcher: Created FT entry with:   0x418bc0
122711000: system.cpu.l1i.prefetcher: CONGRATS: SUCCESS in inserting new FT entry found!!
122775000: system.cpu.l1i.prefetcher: INSERTENTRY(): spatio_region:       0X31, pc:   0x418c00, physical addr:    0x18c00
122775000: system.cpu.l1i.prefetcher: Created FT entry with:   0x418c00
122775000: system.cpu.l1i.prefetcher: CONGRATS: SUCCESS in inserting new FT entry found!!
122858000: system.cpu.l1i.prefetcher: INSERTENTRY(): spatio_region:       0X31, pc:   0x418cc0, physical addr:    0x18cc0
122858000: system.cpu.l1i.prefetcher: Created FT entry with:   0x418cc0
122858000: system.cpu.l1i.prefetcher: CONGRATS: SUCCESS in inserting new FT entry found!!
122938000: system.cpu.l1i.prefetcher: INSERTENTRY(): spatio_region:       0X8F, pc:   0x447f80, physical addr:    0x47f80
122938000: system.cpu.l1i.prefetcher: Created FT entry with:   0x447f80
122938000: system.cpu.l1i.prefetcher: CONGRATS: SUCCESS in inserting new FT entry found!!
123015000: system.cpu.l1i.prefetcher: INSERTENTRY(): spatio_region:       0X8F, pc:   0x447fc0, physical addr:    0x47fc0
123015000: system.cpu.l1i.prefetcher: Created FT entry with:   0x447fc0
123015000: system.cpu.l1i.prefetcher: CONGRATS: SUCCESS in inserting new FT entry found!!
123083000: system.cpu.l1i.prefetcher: INSERTENTRY(): spatio_region:       0X90, pc:   0x448000, physical addr:    0x48000
123083000: system.cpu.l1i.prefetcher: Created FT entry with:   0x448000
123083000: system.cpu.l1i.prefetcher: CONGRATS: SUCCESS in inserting new FT entry found!!
Exit Eventexiting with last active thread context
Dump stats at the end of the ROI!
