gem5 Simulator System.  http://gem5.org
gem5 is copyrighted software; use the --copyright option for details.

gem5 version 20.1.0.2
gem5 compiled Dec  7 2021 03:10:33
gem5 started Dec  7 2021 03:12:45
gem5 executing on ARCH-750, pid 857923
command line: /data/home/ycc32/450_project/gem5/build/X86/gem5.opt --debug-flags=HWPrefetch -re --outdir=/data/home/ycc32/450_project/gem5/results/X86/run_micro/EI/Minor4/Slow/DDR3_2133_8x8/1GHz gem5-config/run_micro.py Minor4 Slow microbenchmark/EI/bench.X86 DDR3_2133_8x8 --clock=1GHz

1GHz CPU speed and DRAM = DDR3_2133_8x8
system.py: init L2 cache with size 1MB
Global frequency set at 1000000000000 ticks per second
   1000: system.cpu.l1i.prefetcher: PC:   0X401BE0
   1000: system.cpu.l1i.prefetcher: Spatial Region address:        0X3
   1000: system.cpu.l1i.prefetcher: Spatial Region physical address:     0X1BC0
   1000: system.cpu.l1i.prefetcher: Spatial Region offset:        0XF
   1000: system.cpu.l1i.prefetcher: PST address added: 0X200DF000F
  79000: system.cpu.l1i.prefetcher: PC:   0X401C00
  79000: system.cpu.l1i.prefetcher: Spatial Region address:        0X3
  79000: system.cpu.l1i.prefetcher: Spatial Region physical address:     0X1C00
  79000: system.cpu.l1i.prefetcher: Spatial Region offset:       0X10
  79000: system.cpu.l1i.prefetcher: PST address added: 0X200E00010
  82000: system.cpu.l1d.prefetcher: PC:   0X401BE9
  82000: system.cpu.l1d.prefetcher: Spatial Region address:      0X187
  82000: system.cpu.l1d.prefetcher: Spatial Region physical address:    0XC3E50
  82000: system.cpu.l1d.prefetcher: Spatial Region offset:       0X19
  82000: system.cpu.l1d.prefetcher: PST address added: 0X200DF4819
 143000: system.cpu.l1i.prefetcher: PC:   0X401C40
 143000: system.cpu.l1i.prefetcher: Spatial Region address:        0X3
 143000: system.cpu.l1i.prefetcher: Spatial Region physical address:     0X1C40
 143000: system.cpu.l1i.prefetcher: Spatial Region offset:       0X11
 143000: system.cpu.l1i.prefetcher: PST address added: 0X200E20011
 167000: system.cpu.l1d.prefetcher: PC:   0X401C08
 167000: system.cpu.l1d.prefetcher: Spatial Region address:      0X187
 167000: system.cpu.l1d.prefetcher: Spatial Region physical address:    0XC3E38
 167000: system.cpu.l1d.prefetcher: Spatial Region offset:       0X18
 167000: system.cpu.l1d.prefetcher: PST address added: 0X200E04018
 207000: system.cpu.l1i.prefetcher: PC:   0X402250
 207000: system.cpu.l1i.prefetcher: Spatial Region address:        0X4
 207000: system.cpu.l1i.prefetcher: Spatial Region physical address:     0X2240
 207000: system.cpu.l1i.prefetcher: Spatial Region offset:        0X9
 207000: system.cpu.l1i.prefetcher: PST address added: 0X201128009
 298000: system.cpu.l1i.prefetcher: PC:   0X402280
 298000: system.cpu.l1i.prefetcher: Spatial Region address:        0X4
 298000: system.cpu.l1i.prefetcher: Spatial Region physical address:     0X2280
 298000: system.cpu.l1i.prefetcher: Spatial Region offset:        0XA
 298000: system.cpu.l1i.prefetcher: PST address added: 0X20114000A
 318000: system.cpu.l1d.prefetcher: PC:   0X40226E
 318000: system.cpu.l1d.prefetcher: Spatial Region address:      0X187
 318000: system.cpu.l1d.prefetcher: Spatial Region physical address:    0XC3D40
 318000: system.cpu.l1d.prefetcher: Spatial Region offset:       0X15
 318000: system.cpu.l1d.prefetcher: PST address added: 0X201137015
 321000: system.cpu.l1d.prefetcher: PC:   0X40227A
 321000: system.cpu.l1d.prefetcher: Spatial Region address:      0X187
 321000: system.cpu.l1d.prefetcher: Spatial Region physical address:    0XC3D48
 321000: system.cpu.l1d.prefetcher: Spatial Region offset:       0X15
 321000: system.cpu.l1d.prefetcher: PST address added: 0X20113D015
 362000: system.cpu.l1i.prefetcher: PC:   0X4022C0
 362000: system.cpu.l1i.prefetcher: Spatial Region address:        0X4
 362000: system.cpu.l1i.prefetcher: Spatial Region physical address:     0X22C0
 362000: system.cpu.l1i.prefetcher: Spatial Region offset:        0XB
 362000: system.cpu.l1i.prefetcher: PST address added: 0X20116000B
 408000: system.cpu.l1d.prefetcher: PC:   0X40227F
 408000: system.cpu.l1d.prefetcher: Spatial Region address:      0X187
 408000: system.cpu.l1d.prefetcher: Spatial Region physical address:    0XC3D3C
 408000: system.cpu.l1d.prefetcher: Spatial Region offset:       0X14
 408000: system.cpu.l1d.prefetcher: PST address added: 0X20113F814
 459000: system.cpu.l1i.prefetcher: PC:   0X402300
 459000: system.cpu.l1i.prefetcher: Spatial Region address:        0X4
 459000: system.cpu.l1i.prefetcher: Spatial Region physical address:     0X2300
 459000: system.cpu.l1i.prefetcher: Spatial Region offset:        0XC
 459000: system.cpu.l1i.prefetcher: PST address added: 0X20118000C
 463000: system.cpu.l1d.prefetcher: PC:   0X402291
 463000: system.cpu.l1d.prefetcher: Spatial Region address:      0X180
 463000: system.cpu.l1d.prefetcher: Spatial Region physical address:    0XC06C8
 463000: system.cpu.l1d.prefetcher: Spatial Region offset:       0X1B
 463000: system.cpu.l1d.prefetcher: PST address added: 0X20114881B
 555000: system.cpu.l1i.prefetcher: PC:   0X401C80
 555000: system.cpu.l1i.prefetcher: Spatial Region address:        0X3
 555000: system.cpu.l1i.prefetcher: Spatial Region physical address:     0X1C80
 555000: system.cpu.l1i.prefetcher: Spatial Region offset:       0X12
 555000: system.cpu.l1i.prefetcher: PST address added: 0X200E40012
 653000: system.cpu.l1i.prefetcher: PC:   0X402340
 653000: system.cpu.l1i.prefetcher: Spatial Region address:        0X4
 653000: system.cpu.l1i.prefetcher: Spatial Region physical address:     0X2340
 653000: system.cpu.l1i.prefetcher: Spatial Region offset:        0XD
 653000: system.cpu.l1i.prefetcher: PST address added: 0X2011A000D
 657000: system.cpu.l1d.prefetcher: PC:   0X4022B3
 657000: system.cpu.l1d.prefetcher: Spatial Region address:      0X183
 657000: system.cpu.l1d.prefetcher: Spatial Region physical address:    0XC1CE8
 657000: system.cpu.l1d.prefetcher: Spatial Region offset:       0X13
 657000: system.cpu.l1d.prefetcher: PST address added: 0X201159813
 660000: system.cpu.l1d.prefetcher: PC:   0X4022BA
 660000: system.cpu.l1d.prefetcher: Spatial Region address:      0X17D
 660000: system.cpu.l1d.prefetcher: Spatial Region physical address:    0XBEA70
 660000: system.cpu.l1d.prefetcher: Spatial Region offset:        0X9
 660000: system.cpu.l1d.prefetcher: PST address added: 0X20115D009
 717000: system.cpu.l1i.prefetcher: PC:   0X402380
 717000: system.cpu.l1i.prefetcher: Spatial Region address:        0X4
 717000: system.cpu.l1i.prefetcher: Spatial Region physical address:     0X2380
 717000: system.cpu.l1i.prefetcher: Spatial Region offset:        0XE
 717000: system.cpu.l1i.prefetcher: PST address added: 0X2011C000E
 781000: system.cpu.l1i.prefetcher: PC:   0X44C550
 781000: system.cpu.l1i.prefetcher: Spatial Region address:       0X98
 781000: system.cpu.l1i.prefetcher: Spatial Region physical address:    0X4C540
 781000: system.cpu.l1i.prefetcher: Spatial Region offset:       0X15
 781000: system.cpu.l1i.prefetcher: PST address added: 0X2262A8015
 858000: system.cpu.l1i.prefetcher: PC:   0X44C580
 858000: system.cpu.l1i.prefetcher: Spatial Region address:       0X98
 858000: system.cpu.l1i.prefetcher: Spatial Region physical address:    0X4C580
 858000: system.cpu.l1i.prefetcher: Spatial Region offset:       0X16
 858000: system.cpu.l1i.prefetcher: PST address added: 0X2262C0016
 865000: system.cpu.l1d.prefetcher: PC:   0X44C557
 865000: system.cpu.l1d.prefetcher: Spatial Region address:      0X184
 865000: system.cpu.l1d.prefetcher: Spatial Region physical address:    0XC27E0
 865000: system.cpu.l1d.prefetcher: Spatial Region offset:       0X1F
 865000: system.cpu.l1d.prefetcher: PST address added: 0X2262AB81F
 871000: system.cpu.l1d.prefetcher: PC:   0X44C569
 871000: system.cpu.l1d.prefetcher: Spatial Region address:      0X183
 871000: system.cpu.l1d.prefetcher: Spatial Region physical address:    0XC1D00
 871000: system.cpu.l1d.prefetcher: Spatial Region offset:       0X14
 871000: system.cpu.l1d.prefetcher: PST address added: 0X2262B4814
 922000: system.cpu.l1i.prefetcher: PC:   0X44C5C0
 922000: system.cpu.l1i.prefetcher: Spatial Region address:       0X98
 922000: system.cpu.l1i.prefetcher: Spatial Region physical address:    0X4C5C0
 922000: system.cpu.l1i.prefetcher: Spatial Region offset:       0X17
 922000: system.cpu.l1i.prefetcher: PST address added: 0X2262E0017
 960000: system.cpu.l1d.prefetcher: PC:   0X44C578
 960000: system.cpu.l1d.prefetcher: Spatial Region address:      0X185
 960000: system.cpu.l1d.prefetcher: Spatial Region physical address:    0XC2890
 960000: system.cpu.l1d.prefetcher: Spatial Region offset:        0X2
 960000: system.cpu.l1d.prefetcher: PST address added: 0X2262BC002
 986000: system.cpu.l1i.prefetcher: PC:   0X44C600
 986000: system.cpu.l1i.prefetcher: Spatial Region address:       0X98
 986000: system.cpu.l1i.prefetcher: Spatial Region physical address:    0X4C600
 986000: system.cpu.l1i.prefetcher: Spatial Region offset:       0X18
 986000: system.cpu.l1i.prefetcher: PST address added: 0X226300018
1025000: system.cpu.l1d.prefetcher: PC:   0X44C586
1025000: system.cpu.l1d.prefetcher: Spatial Region address:      0X180
1025000: system.cpu.l1d.prefetcher: Spatial Region physical address:    0XC0118
1025000: system.cpu.l1d.prefetcher: Spatial Region offset:        0X4
1025000: system.cpu.l1d.prefetcher: PST address added: 0X2262C3004
1050000: system.cpu.l1i.prefetcher: PC:   0X44C640
1050000: system.cpu.l1i.prefetcher: Spatial Region address:       0X98
1050000: system.cpu.l1i.prefetcher: Spatial Region physical address:    0X4C640
1050000: system.cpu.l1i.prefetcher: Spatial Region offset:       0X19
1050000: system.cpu.l1i.prefetcher: PST address added: 0X226320019
1089000: system.cpu.l1d.prefetcher: PC:   0X44C594
1089000: system.cpu.l1d.prefetcher: Spatial Region address:      0X185
1089000: system.cpu.l1d.prefetcher: Spatial Region physical address:    0XC2848
1089000: system.cpu.l1d.prefetcher: Spatial Region offset:        0X1
1089000: system.cpu.l1d.prefetcher: PST address added: 0X2262CA001
1152000: system.cpu.l1d.prefetcher: PC:   0X44C59B
1152000: system.cpu.l1d.prefetcher: Spatial Region address:      0X185
1152000: system.cpu.l1d.prefetcher: Spatial Region physical address:    0XC2810
1152000: system.cpu.l1d.prefetcher: Spatial Region offset:          0
1222000: system.cpu.l1d.prefetcher: PC:   0X44C5AE
1222000: system.cpu.l1d.prefetcher: Spatial Region address:      0X187
1222000: system.cpu.l1d.prefetcher: Spatial Region physical address:    0XC3CF8
1222000: system.cpu.l1d.prefetcher: Spatial Region offset:       0X13
1222000: system.cpu.l1d.prefetcher: PST address added: 0X2262D7013
1226000: system.cpu.l1d.prefetcher: PC:   0X44C5B6
1226000: system.cpu.l1d.prefetcher: Spatial Region address:      0X187
1226000: system.cpu.l1d.prefetcher: Spatial Region physical address:    0XC3CD0
1226000: system.cpu.l1d.prefetcher: Spatial Region offset:       0X13
1226000: system.cpu.l1d.prefetcher: PST address added: 0X2262DB013
1228000: system.cpu.l1i.prefetcher: PC:   0X44C680
1228000: system.cpu.l1i.prefetcher: Spatial Region address:       0X98
1228000: system.cpu.l1i.prefetcher: Spatial Region physical address:    0X4C680
1228000: system.cpu.l1i.prefetcher: Spatial Region offset:       0X1A
1228000: system.cpu.l1i.prefetcher: PST address added: 0X22634001A
1285000: system.cpu.l1d.prefetcher: PC:   0X44C5BB
1285000: system.cpu.l1d.prefetcher: Spatial Region address:      0X17D
1285000: system.cpu.l1d.prefetcher: Spatial Region physical address:    0XBEAA0
1285000: system.cpu.l1d.prefetcher: Spatial Region offset:        0XA
1285000: system.cpu.l1d.prefetcher: PST address added: 0X2262DD80A
1379000: system.cpu.l1i.prefetcher: PC:   0X44C6C0
1379000: system.cpu.l1i.prefetcher: Spatial Region address:       0X98
1379000: system.cpu.l1i.prefetcher: Spatial Region physical address:    0X4C6C0
1379000: system.cpu.l1i.prefetcher: Spatial Region offset:       0X1B
1379000: system.cpu.l1i.prefetcher: PST address added: 0X22636001B
1387000: system.cpu.l1d.prefetcher: PC:   0X44C632
1387000: system.cpu.l1d.prefetcher: Spatial Region address:      0X131
1387000: system.cpu.l1d.prefetcher: Spatial Region physical address:    0X98FF8
1387000: system.cpu.l1d.prefetcher: Spatial Region offset:       0X1F
1387000: system.cpu.l1d.prefetcher: PST address added: 0X22631901F
1466000: system.cpu.l1i.prefetcher: PC:   0X44C740
1466000: system.cpu.l1i.prefetcher: Spatial Region address:       0X98
1466000: system.cpu.l1i.prefetcher: Spatial Region physical address:    0X4C740
1466000: system.cpu.l1i.prefetcher: Spatial Region offset:       0X1D
1466000: system.cpu.l1i.prefetcher: PST address added: 0X2263A001D
1530000: system.cpu.l1i.prefetcher: PC:   0X44C780
1530000: system.cpu.l1i.prefetcher: Spatial Region address:       0X98
1530000: system.cpu.l1i.prefetcher: Spatial Region physical address:    0X4C780
1530000: system.cpu.l1i.prefetcher: Spatial Region offset:       0X1E
1530000: system.cpu.l1i.prefetcher: PST address added: 0X2263C001E
1539000: system.cpu.l1d.prefetcher: PC:   0X44C752
1539000: system.cpu.l1d.prefetcher: Spatial Region address:      0X187
1539000: system.cpu.l1d.prefetcher: Spatial Region physical address:    0XC3E80
1539000: system.cpu.l1d.prefetcher: Spatial Region offset:       0X1A
1539000: system.cpu.l1d.prefetcher: PST address added: 0X2263A901A
1594000: system.cpu.l1i.prefetcher: PC:   0X44C7C0
1594000: system.cpu.l1i.prefetcher: Spatial Region address:       0X98
1594000: system.cpu.l1i.prefetcher: Spatial Region physical address:    0X4C7C0
1594000: system.cpu.l1i.prefetcher: Spatial Region offset:       0X1F
1594000: system.cpu.l1i.prefetcher: PST address added: 0X2263E001F
1667000: system.cpu.l1d.prefetcher: PC:   0X44C632
1667000: system.cpu.l1d.prefetcher: Spatial Region address:      0X131
1667000: system.cpu.l1d.prefetcher: Spatial Region physical address:    0X98FB4
1667000: system.cpu.l1d.prefetcher: Spatial Region offset:       0X1E
1667000: system.cpu.l1d.prefetcher: PST address added: 0X22631901E
1733000: system.cpu.l1i.prefetcher: PC:   0X44C810
1733000: system.cpu.l1i.prefetcher: Spatial Region address:       0X99
1733000: system.cpu.l1i.prefetcher: Spatial Region physical address:    0X4C800
1733000: system.cpu.l1i.prefetcher: Spatial Region offset:          0
1733000: system.cpu.l1i.prefetcher: PST address added: 0X226408000
1797000: system.cpu.l1i.prefetcher: PC:   0X44C840
1797000: system.cpu.l1i.prefetcher: Spatial Region address:       0X99
1797000: system.cpu.l1i.prefetcher: Spatial Region physical address:    0X4C840
1797000: system.cpu.l1i.prefetcher: Spatial Region offset:        0X1
1876000: system.cpu.l1i.prefetcher: PC:   0X44C8E0
1876000: system.cpu.l1i.prefetcher: Spatial Region address:       0X99
1876000: system.cpu.l1i.prefetcher: Spatial Region physical address:    0X4C8C0
1876000: system.cpu.l1i.prefetcher: Spatial Region offset:        0X3
1940000: system.cpu.l1i.prefetcher: PC:   0X44C900
1940000: system.cpu.l1i.prefetcher: Spatial Region address:       0X99
1940000: system.cpu.l1i.prefetcher: Spatial Region physical address:    0X4C900
1940000: system.cpu.l1i.prefetcher: Spatial Region offset:        0X4
2004000: system.cpu.l1i.prefetcher: PC:   0X44C940
2004000: system.cpu.l1i.prefetcher: Spatial Region address:       0X99
2004000: system.cpu.l1i.prefetcher: Spatial Region physical address:    0X4C940
2004000: system.cpu.l1i.prefetcher: Spatial Region offset:        0X5
2091000: system.cpu.l1i.prefetcher: PC:   0X44C880
2091000: system.cpu.l1i.prefetcher: Spatial Region address:       0X99
2091000: system.cpu.l1i.prefetcher: Spatial Region physical address:    0X4C880
2091000: system.cpu.l1i.prefetcher: Spatial Region offset:        0X2
2174000: system.cpu.l1i.prefetcher: PC:   0X44C980
2174000: system.cpu.l1i.prefetcher: Spatial Region address:       0X99
2174000: system.cpu.l1i.prefetcher: Spatial Region physical address:    0X4C980
2174000: system.cpu.l1i.prefetcher: Spatial Region offset:        0X6
2177000: system.cpu.l1d.prefetcher: PC:   0X44C934
2177000: system.cpu.l1d.prefetcher: Spatial Region address:      0X187
2177000: system.cpu.l1d.prefetcher: Spatial Region physical address:    0XC3EC0
2177000: system.cpu.l1d.prefetcher: Spatial Region offset:       0X1B
2177000: system.cpu.l1d.prefetcher: PST address added: 0X22649A01B
2251000: system.cpu.l1i.prefetcher: PC:   0X44C9C0
2251000: system.cpu.l1i.prefetcher: Spatial Region address:       0X99
2251000: system.cpu.l1i.prefetcher: Spatial Region physical address:    0X4C9C0
2251000: system.cpu.l1i.prefetcher: Spatial Region offset:        0X7
2342000: system.cpu.l1i.prefetcher: PC:   0X44C700
2342000: system.cpu.l1i.prefetcher: Spatial Region address:       0X98
2342000: system.cpu.l1i.prefetcher: Spatial Region physical address:    0X4C700
2342000: system.cpu.l1i.prefetcher: Spatial Region offset:       0X1C
2342000: system.cpu.l1i.prefetcher: PST address added: 0X22638001C
2495000: system.cpu.l1d.prefetcher: PC:   0X44C650
2495000: system.cpu.l1d.prefetcher: Spatial Region address:      0X187
2495000: system.cpu.l1d.prefetcher: Spatial Region physical address:    0XC3F00
2495000: system.cpu.l1d.prefetcher: Spatial Region offset:       0X1C
2495000: system.cpu.l1d.prefetcher: PST address added: 0X22632801C
2686000: system.cpu.l1d.prefetcher: PC:   0X44C883
2686000: system.cpu.l1d.prefetcher: Spatial Region address:      0X187
2686000: system.cpu.l1d.prefetcher: Spatial Region physical address:    0XC3F40
2686000: system.cpu.l1d.prefetcher: Spatial Region offset:       0X1D
2686000: system.cpu.l1d.prefetcher: PST address added: 0X22644181D
2884000: system.cpu.l1d.prefetcher: PC:   0X44C650
2884000: system.cpu.l1d.prefetcher: Spatial Region address:      0X187
2884000: system.cpu.l1d.prefetcher: Spatial Region physical address:    0XC3F80
2884000: system.cpu.l1d.prefetcher: Spatial Region offset:       0X1E
2884000: system.cpu.l1d.prefetcher: PST address added: 0X22632801E
3011000: system.cpu.l1i.prefetcher: PC:   0X44CA00
3011000: system.cpu.l1i.prefetcher: Spatial Region address:       0X99
3011000: system.cpu.l1i.prefetcher: Spatial Region physical address:    0X4CA00
3011000: system.cpu.l1i.prefetcher: Spatial Region offset:        0X8
3222000: system.cpu.l1i.prefetcher: PC:   0X4023C0
3222000: system.cpu.l1i.prefetcher: Spatial Region address:        0X4
3222000: system.cpu.l1i.prefetcher: Spatial Region physical address:     0X23C0
3222000: system.cpu.l1i.prefetcher: Spatial Region offset:        0XF
3222000: system.cpu.l1i.prefetcher: PST address added: 0X2011E000F
3313000: system.cpu.l1i.prefetcher: PC:   0X44D6B0
3313000: system.cpu.l1i.prefetcher: Spatial Region address:       0X9A
3313000: system.cpu.l1i.prefetcher: Spatial Region physical address:    0X4D680
3313000: system.cpu.l1i.prefetcher: Spatial Region offset:       0X1A
3313000: system.cpu.l1i.prefetcher: PST address added: 0X226B5801A
3377000: system.cpu.l1i.prefetcher: PC:   0X44D6C0
3377000: system.cpu.l1i.prefetcher: Spatial Region address:       0X9A
3377000: system.cpu.l1i.prefetcher: Spatial Region physical address:    0X4D6C0
3377000: system.cpu.l1i.prefetcher: Spatial Region offset:       0X1B
3377000: system.cpu.l1i.prefetcher: PST address added: 0X226B6001B
3455000: system.cpu.l1i.prefetcher: PC:   0X44BF50
3455000: system.cpu.l1i.prefetcher: Spatial Region address:       0X97
3455000: system.cpu.l1i.prefetcher: Spatial Region physical address:    0X4BF40
3455000: system.cpu.l1i.prefetcher: Spatial Region offset:       0X1D
3455000: system.cpu.l1i.prefetcher: PST address added: 0X225FA801D
3532000: system.cpu.l1i.prefetcher: PC:   0X44BF80
3532000: system.cpu.l1i.prefetcher: Spatial Region address:       0X97
3532000: system.cpu.l1i.prefetcher: Spatial Region physical address:    0X4BF80
3532000: system.cpu.l1i.prefetcher: Spatial Region offset:       0X1E
3596000: system.cpu.l1i.prefetcher: PC:   0X44BFC0
3596000: system.cpu.l1i.prefetcher: Spatial Region address:       0X97
3596000: system.cpu.l1i.prefetcher: Spatial Region physical address:    0X4BFC0
3596000: system.cpu.l1i.prefetcher: Spatial Region offset:       0X1F
3660000: system.cpu.l1i.prefetcher: PC:   0X44C09A
3660000: system.cpu.l1i.prefetcher: Spatial Region address:       0X98
3660000: system.cpu.l1i.prefetcher: Spatial Region physical address:    0X4C080
3660000: system.cpu.l1i.prefetcher: Spatial Region offset:        0X2
3660000: system.cpu.l1i.prefetcher: PST address added: 0X22604D002
3724000: system.cpu.l1i.prefetcher: PC:   0X44C0C0
3724000: system.cpu.l1i.prefetcher: Spatial Region address:       0X98
3724000: system.cpu.l1i.prefetcher: Spatial Region physical address:    0X4C0C0
3724000: system.cpu.l1i.prefetcher: Spatial Region offset:        0X3
3724000: system.cpu.l1i.prefetcher: PST address added: 0X226060003
3816000: system.cpu.l1d.prefetcher: PC:   0X40233F
3816000: system.cpu.l1d.prefetcher: Spatial Region address:      0X183
3816000: system.cpu.l1d.prefetcher: Spatial Region physical address:    0XC1D8C
3816000: system.cpu.l1d.prefetcher: Spatial Region offset:       0X16
3816000: system.cpu.l1d.prefetcher: PST address added: 0X20119F816
3818000: system.cpu.l1i.prefetcher: PC:   0X402400
3818000: system.cpu.l1i.prefetcher: Spatial Region address:        0X4
3818000: system.cpu.l1i.prefetcher: Spatial Region physical address:     0X2400
3818000: system.cpu.l1i.prefetcher: Spatial Region offset:       0X10
3818000: system.cpu.l1i.prefetcher: PST address added: 0X201200010
3884000: system.cpu.l1i.prefetcher: PC:   0X4024BD
3884000: system.cpu.l1i.prefetcher: Spatial Region address:        0X4
3884000: system.cpu.l1i.prefetcher: Spatial Region physical address:     0X2480
3884000: system.cpu.l1i.prefetcher: Spatial Region offset:       0X12
3884000: system.cpu.l1i.prefetcher: PST address added: 0X20125E812
3948000: system.cpu.l1i.prefetcher: PC:   0X4024C0
3948000: system.cpu.l1i.prefetcher: Spatial Region address:        0X4
3948000: system.cpu.l1i.prefetcher: Spatial Region physical address:     0X24C0
3948000: system.cpu.l1i.prefetcher: Spatial Region offset:       0X13
3948000: system.cpu.l1i.prefetcher: PST address added: 0X201260013
4012000: system.cpu.l1i.prefetcher: PC:   0X402500
4012000: system.cpu.l1i.prefetcher: Spatial Region address:        0X4
4012000: system.cpu.l1i.prefetcher: Spatial Region physical address:     0X2500
4012000: system.cpu.l1i.prefetcher: Spatial Region offset:       0X14
4012000: system.cpu.l1i.prefetcher: PST address added: 0X201280014
4076000: system.cpu.l1i.prefetcher: PC:   0X402A13
4076000: system.cpu.l1i.prefetcher: Spatial Region address:        0X5
4076000: system.cpu.l1i.prefetcher: Spatial Region physical address:     0X2A00
4076000: system.cpu.l1i.prefetcher: Spatial Region offset:        0X8
4076000: system.cpu.l1i.prefetcher: PST address added: 0X201509808
4140000: system.cpu.l1i.prefetcher: PC:   0X402A40
4140000: system.cpu.l1i.prefetcher: Spatial Region address:        0X5
4140000: system.cpu.l1i.prefetcher: Spatial Region physical address:     0X2A40
4140000: system.cpu.l1i.prefetcher: Spatial Region offset:        0X9
4140000: system.cpu.l1i.prefetcher: PST address added: 0X201520009
4219000: system.cpu.l1i.prefetcher: PC:   0X401ED0
4219000: system.cpu.l1i.prefetcher: Spatial Region address:        0X3
4219000: system.cpu.l1i.prefetcher: Spatial Region physical address:     0X1EC0
4219000: system.cpu.l1i.prefetcher: Spatial Region offset:       0X1B
4219000: system.cpu.l1i.prefetcher: PST address added: 0X200F6801B
4310000: system.cpu.l1i.prefetcher: PC:   0X401F00
4310000: system.cpu.l1i.prefetcher: Spatial Region address:        0X3
4310000: system.cpu.l1i.prefetcher: Spatial Region physical address:     0X1F00
4310000: system.cpu.l1i.prefetcher: Spatial Region offset:       0X1C
4310000: system.cpu.l1i.prefetcher: PST address added: 0X200F8001C
4376000: system.cpu.l1i.prefetcher: PC:   0X401F40
4376000: system.cpu.l1i.prefetcher: Spatial Region address:        0X3
4376000: system.cpu.l1i.prefetcher: Spatial Region physical address:     0X1F40
4376000: system.cpu.l1i.prefetcher: Spatial Region offset:       0X1D
4376000: system.cpu.l1i.prefetcher: PST address added: 0X200FA001D
4440000: system.cpu.l1i.prefetcher: PC:   0X401F80
4440000: system.cpu.l1i.prefetcher: Spatial Region address:        0X3
4440000: system.cpu.l1i.prefetcher: Spatial Region physical address:     0X1F80
4440000: system.cpu.l1i.prefetcher: Spatial Region offset:       0X1E
4440000: system.cpu.l1i.prefetcher: PST address added: 0X200FC001E
4508000: system.cpu.l1i.prefetcher: PC:   0X401FC0
4508000: system.cpu.l1i.prefetcher: Spatial Region address:        0X3
4508000: system.cpu.l1i.prefetcher: Spatial Region physical address:     0X1FC0
4508000: system.cpu.l1i.prefetcher: Spatial Region offset:       0X1F
4508000: system.cpu.l1i.prefetcher: PST address added: 0X200FE001F
4576000: system.cpu.l1i.prefetcher: PC:   0X402000
4576000: system.cpu.l1i.prefetcher: Spatial Region address:        0X4
4576000: system.cpu.l1i.prefetcher: Spatial Region physical address:     0X2000
4576000: system.cpu.l1i.prefetcher: Spatial Region offset:          0
4640000: system.cpu.l1i.prefetcher: PC:   0X402094
4640000: system.cpu.l1i.prefetcher: Spatial Region address:        0X4
4640000: system.cpu.l1i.prefetcher: Spatial Region physical address:     0X2080
4640000: system.cpu.l1i.prefetcher: Spatial Region offset:        0X2
4704000: system.cpu.l1i.prefetcher: PC:   0X4020C0
4704000: system.cpu.l1i.prefetcher: Spatial Region address:        0X4
4704000: system.cpu.l1i.prefetcher: Spatial Region physical address:     0X20C0
4704000: system.cpu.l1i.prefetcher: Spatial Region offset:        0X3
4704000: system.cpu.l1i.prefetcher: PST address added: 0X201060003
4781000: system.cpu.l1i.prefetcher: PC:   0X402440
4781000: system.cpu.l1i.prefetcher: Spatial Region address:        0X4
4781000: system.cpu.l1i.prefetcher: Spatial Region physical address:     0X2440
4781000: system.cpu.l1i.prefetcher: Spatial Region offset:       0X11
4781000: system.cpu.l1i.prefetcher: PST address added: 0X201220011
4886000: system.cpu.l1i.prefetcher: PC:   0X44C4E0
4886000: system.cpu.l1i.prefetcher: Spatial Region address:       0X98
4886000: system.cpu.l1i.prefetcher: Spatial Region physical address:    0X4C4C0
4886000: system.cpu.l1i.prefetcher: Spatial Region offset:       0X13
4886000: system.cpu.l1i.prefetcher: PST address added: 0X226270013
4950000: system.cpu.l1i.prefetcher: PC:   0X44C500
4950000: system.cpu.l1i.prefetcher: Spatial Region address:       0X98
4950000: system.cpu.l1i.prefetcher: Spatial Region physical address:    0X4C500
4950000: system.cpu.l1i.prefetcher: Spatial Region offset:       0X14
4958000: system.cpu.l1d.prefetcher: PC:   0X44C4FC
4958000: system.cpu.l1d.prefetcher: Spatial Region address:      0X17C
4958000: system.cpu.l1d.prefetcher: Spatial Region physical address:    0XBE7A8
4958000: system.cpu.l1d.prefetcher: Spatial Region offset:       0X1E
4958000: system.cpu.l1d.prefetcher: PST address added: 0X22627E01E
5020000: system.cpu.l1d.prefetcher: PC:   0X44C500
5020000: system.cpu.l1d.prefetcher: Spatial Region address:      0X17C
5020000: system.cpu.l1d.prefetcher: Spatial Region physical address:    0XBE7C0
5020000: system.cpu.l1d.prefetcher: Spatial Region offset:       0X1F
5020000: system.cpu.l1d.prefetcher: PST address added: 0X22628001F
5152000: system.cpu.l1d.prefetcher: PC:   0X44C4FC
5152000: system.cpu.l1d.prefetcher: Spatial Region address:      0X17C
5152000: system.cpu.l1d.prefetcher: Spatial Region physical address:    0XBE620
5152000: system.cpu.l1d.prefetcher: Spatial Region offset:       0X18
5152000: system.cpu.l1d.prefetcher: PST address added: 0X22627E018
5242000: system.cpu.l1d.prefetcher: PC:   0X44C51C
5242000: system.cpu.l1d.prefetcher: Spatial Region address:      0X17C
5242000: system.cpu.l1d.prefetcher: Spatial Region physical address:    0XBE640
5242000: system.cpu.l1d.prefetcher: Spatial Region offset:       0X19
5242000: system.cpu.l1d.prefetcher: PST address added: 0X22628E019
5330000: system.cpu.l1d.prefetcher: PC:   0X4023F5
5330000: system.cpu.l1d.prefetcher: Spatial Region address:      0X183
5330000: system.cpu.l1d.prefetcher: Spatial Region physical address:    0XC1DC0
5330000: system.cpu.l1d.prefetcher: Spatial Region offset:       0X17
5330000: system.cpu.l1d.prefetcher: PST address added: 0X2011FA817
5347000: system.cpu.l1d.prefetcher: PC:   0X44C4FC
5347000: system.cpu.l1d.prefetcher: Spatial Region address:      0X17D
5347000: system.cpu.l1d.prefetcher: Spatial Region physical address:    0XBE888
5347000: system.cpu.l1d.prefetcher: Spatial Region offset:        0X2
5347000: system.cpu.l1d.prefetcher: PST address added: 0X22627E002
5440000: system.cpu.l1d.prefetcher: PC:   0X44C548
5440000: system.cpu.l1d.prefetcher: Spatial Region address:      0X187
5440000: system.cpu.l1d.prefetcher: Spatial Region physical address:    0XC3D80
5440000: system.cpu.l1d.prefetcher: Spatial Region offset:       0X16
5440000: system.cpu.l1d.prefetcher: PST address added: 0X2262A4016
5500000: system.cpu.l1d.prefetcher: PC:   0X44C4FC
5500000: system.cpu.l1d.prefetcher: Spatial Region address:      0X17C
5500000: system.cpu.l1d.prefetcher: Spatial Region physical address:    0XBE4D0
5500000: system.cpu.l1d.prefetcher: Spatial Region offset:       0X13
5500000: system.cpu.l1d.prefetcher: PST address added: 0X22627E013
5646000: system.cpu.l1d.prefetcher: PC:   0X44C4FC
5646000: system.cpu.l1d.prefetcher: Spatial Region address:      0X17C
5646000: system.cpu.l1d.prefetcher: Spatial Region physical address:    0XBE770
5646000: system.cpu.l1d.prefetcher: Spatial Region offset:       0X1D
5646000: system.cpu.l1d.prefetcher: PST address added: 0X22627E01D
5847000: system.cpu.l1d.prefetcher: PC:   0X402491
5847000: system.cpu.l1d.prefetcher: Spatial Region address:          0
5847000: system.cpu.l1d.prefetcher: Spatial Region physical address:      0X2E8
5847000: system.cpu.l1d.prefetcher: Spatial Region offset:        0XB
5847000: system.cpu.l1d.prefetcher: PST address added: 0X20124880B
5861000: system.cpu.l1i.prefetcher: PC:   0X402540
5861000: system.cpu.l1i.prefetcher: Spatial Region address:        0X4
5861000: system.cpu.l1i.prefetcher: Spatial Region physical address:     0X2540
5861000: system.cpu.l1i.prefetcher: Spatial Region offset:       0X15
5861000: system.cpu.l1i.prefetcher: PST address added: 0X2012A0015
5964000: system.cpu.l1i.prefetcher: PC:   0X421AC0
5964000: system.cpu.l1i.prefetcher: Spatial Region address:       0X43
5964000: system.cpu.l1i.prefetcher: Spatial Region physical address:    0X21AC0
5964000: system.cpu.l1i.prefetcher: Spatial Region offset:        0XB
5964000: system.cpu.l1i.prefetcher: PST address added: 0X210D6000B
6055000: system.cpu.l1i.prefetcher: PC:   0X421B00
6055000: system.cpu.l1i.prefetcher: Spatial Region address:       0X43
6055000: system.cpu.l1i.prefetcher: Spatial Region physical address:    0X21B00
6055000: system.cpu.l1i.prefetcher: Spatial Region offset:        0XC
6055000: system.cpu.l1i.prefetcher: PST address added: 0X210D8000C
6119000: system.cpu.l1i.prefetcher: PC:   0X421B40
6119000: system.cpu.l1i.prefetcher: Spatial Region address:       0X43
6119000: system.cpu.l1i.prefetcher: Spatial Region physical address:    0X21B40
6119000: system.cpu.l1i.prefetcher: Spatial Region offset:        0XD
6119000: system.cpu.l1i.prefetcher: PST address added: 0X210DA000D
6192000: system.cpu.l1d.prefetcher: PC:   0X402498
6192000: system.cpu.l1d.prefetcher: Spatial Region address:      0X17E
6192000: system.cpu.l1d.prefetcher: Spatial Region physical address:    0XBF0D0
6192000: system.cpu.l1d.prefetcher: Spatial Region offset:        0X3
6192000: system.cpu.l1d.prefetcher: PST address added: 0X20124C003
6205000: system.cpu.l1d.prefetcher: PC:   0X402491
6205000: system.cpu.l1d.prefetcher: Spatial Region address:          0
6205000: system.cpu.l1d.prefetcher: Spatial Region physical address:      0X300
6205000: system.cpu.l1d.prefetcher: Spatial Region offset:        0XC
6205000: system.cpu.l1d.prefetcher: PST address added: 0X20124880C
6297000: system.cpu.l1i.prefetcher: PC:   0X421C30
6297000: system.cpu.l1i.prefetcher: Spatial Region address:       0X43
6297000: system.cpu.l1i.prefetcher: Spatial Region physical address:    0X21C00
6297000: system.cpu.l1i.prefetcher: Spatial Region offset:       0X10
6297000: system.cpu.l1i.prefetcher: PST address added: 0X210E18010
6388000: system.cpu.l1i.prefetcher: PC:   0X421C40
6388000: system.cpu.l1i.prefetcher: Spatial Region address:       0X43
6388000: system.cpu.l1i.prefetcher: Spatial Region physical address:    0X21C40
6388000: system.cpu.l1i.prefetcher: Spatial Region offset:       0X11
6388000: system.cpu.l1i.prefetcher: PST address added: 0X210E20011
6452000: system.cpu.l1i.prefetcher: PC:   0X421C80
6452000: system.cpu.l1i.prefetcher: Spatial Region address:       0X43
6452000: system.cpu.l1i.prefetcher: Spatial Region physical address:    0X21C80
6452000: system.cpu.l1i.prefetcher: Spatial Region offset:       0X12
6452000: system.cpu.l1i.prefetcher: PST address added: 0X210E40012
6544000: system.cpu.l1i.prefetcher: PC:   0X484BC0
6544000: system.cpu.l1i.prefetcher: Spatial Region address:      0X109
6544000: system.cpu.l1i.prefetcher: Spatial Region physical address:    0X84BC0
6544000: system.cpu.l1i.prefetcher: Spatial Region offset:        0XF
6544000: system.cpu.l1i.prefetcher: PST address added: 0X2425E000F
6621000: system.cpu.l1i.prefetcher: PC:   0X484C00
6621000: system.cpu.l1i.prefetcher: Spatial Region address:      0X109
6621000: system.cpu.l1i.prefetcher: Spatial Region physical address:    0X84C00
6621000: system.cpu.l1i.prefetcher: Spatial Region offset:       0X10
6621000: system.cpu.l1i.prefetcher: PST address added: 0X242600010
6713000: system.cpu.l1i.prefetcher: PC:   0X421BD0
6713000: system.cpu.l1i.prefetcher: Spatial Region address:       0X43
6713000: system.cpu.l1i.prefetcher: Spatial Region physical address:    0X21BC0
6713000: system.cpu.l1i.prefetcher: Spatial Region offset:        0XF
6713000: system.cpu.l1i.prefetcher: PST address added: 0X210DE800F
6803000: system.cpu.l1d.prefetcher: PC:   0X402498
6803000: system.cpu.l1d.prefetcher: Spatial Region address:      0X17E
6803000: system.cpu.l1d.prefetcher: Spatial Region physical address:    0XBF0B8
6803000: system.cpu.l1d.prefetcher: Spatial Region offset:        0X2
6803000: system.cpu.l1d.prefetcher: PST address added: 0X20124C002
6804000: system.cpu.l1d.prefetcher: PC:   0X4024A8
6804000: system.cpu.l1d.prefetcher: Spatial Region address:          0
6804000: system.cpu.l1d.prefetcher: Spatial Region physical address:      0X340
6804000: system.cpu.l1d.prefetcher: Spatial Region offset:        0XD
6804000: system.cpu.l1d.prefetcher: PST address added: 0X20125400D
6909000: system.cpu.l1i.prefetcher: PC:   0X4226A0
6909000: system.cpu.l1i.prefetcher: Spatial Region address:       0X44
6909000: system.cpu.l1i.prefetcher: Spatial Region physical address:    0X22680
6909000: system.cpu.l1i.prefetcher: Spatial Region offset:       0X1A
6909000: system.cpu.l1i.prefetcher: PST address added: 0X21135001A
7000000: system.cpu.l1i.prefetcher: PC:   0X4226C0
7000000: system.cpu.l1i.prefetcher: Spatial Region address:       0X44
7000000: system.cpu.l1i.prefetcher: Spatial Region physical address:    0X226C0
7000000: system.cpu.l1i.prefetcher: Spatial Region offset:       0X1B
7000000: system.cpu.l1i.prefetcher: PST address added: 0X21136001B
7064000: system.cpu.l1i.prefetcher: PC:   0X422700
7064000: system.cpu.l1i.prefetcher: Spatial Region address:       0X44
7064000: system.cpu.l1i.prefetcher: Spatial Region physical address:    0X22700
7064000: system.cpu.l1i.prefetcher: Spatial Region offset:       0X1C
7064000: system.cpu.l1i.prefetcher: PST address added: 0X21138001C
7132000: system.cpu.l1i.prefetcher: PC:   0X422740
7132000: system.cpu.l1i.prefetcher: Spatial Region address:       0X44
7132000: system.cpu.l1i.prefetcher: Spatial Region physical address:    0X22740
7132000: system.cpu.l1i.prefetcher: Spatial Region offset:       0X1D
7132000: system.cpu.l1i.prefetcher: PST address added: 0X2113A001D
7198000: system.cpu.l1i.prefetcher: PC:   0X422780
7198000: system.cpu.l1i.prefetcher: Spatial Region address:       0X44
7198000: system.cpu.l1i.prefetcher: Spatial Region physical address:    0X22780
7198000: system.cpu.l1i.prefetcher: Spatial Region offset:       0X1E
7198000: system.cpu.l1i.prefetcher: PST address added: 0X2113C001E
7290000: system.cpu.l1i.prefetcher: PC:   0X484E60
7290000: system.cpu.l1i.prefetcher: Spatial Region address:      0X109
7290000: system.cpu.l1i.prefetcher: Spatial Region physical address:    0X84E40
7290000: system.cpu.l1i.prefetcher: Spatial Region offset:       0X19
7290000: system.cpu.l1i.prefetcher: PST address added: 0X242730019
7354000: system.cpu.l1i.prefetcher: PC:   0X484E80
7354000: system.cpu.l1i.prefetcher: Spatial Region address:      0X109
7354000: system.cpu.l1i.prefetcher: Spatial Region physical address:    0X84E80
7354000: system.cpu.l1i.prefetcher: Spatial Region offset:       0X1A
7354000: system.cpu.l1i.prefetcher: PST address added: 0X24274001A
7418000: system.cpu.l1i.prefetcher: PC:   0X484EC0
7418000: system.cpu.l1i.prefetcher: Spatial Region address:      0X109
7418000: system.cpu.l1i.prefetcher: Spatial Region physical address:    0X84EC0
7418000: system.cpu.l1i.prefetcher: Spatial Region offset:       0X1B
7418000: system.cpu.l1i.prefetcher: PST address added: 0X24276001B
7486000: system.cpu.l1i.prefetcher: PC:   0X484F00
7486000: system.cpu.l1i.prefetcher: Spatial Region address:      0X109
7486000: system.cpu.l1i.prefetcher: Spatial Region physical address:    0X84F00
7486000: system.cpu.l1i.prefetcher: Spatial Region offset:       0X1C
7486000: system.cpu.l1i.prefetcher: PST address added: 0X24278001C
7582000: system.cpu.l1i.prefetcher: PC:   0X421B80
7582000: system.cpu.l1i.prefetcher: Spatial Region address:       0X43
7582000: system.cpu.l1i.prefetcher: Spatial Region physical address:    0X21B80
7582000: system.cpu.l1i.prefetcher: Spatial Region offset:        0XE
7582000: system.cpu.l1i.prefetcher: PST address added: 0X210DC000E
7683000: system.cpu.l1d.prefetcher: PC:   0X4024A8
7683000: system.cpu.l1d.prefetcher: Spatial Region address:          0
7683000: system.cpu.l1d.prefetcher: Spatial Region physical address:      0X388
7683000: system.cpu.l1d.prefetcher: Spatial Region offset:        0XE
7683000: system.cpu.l1d.prefetcher: PST address added: 0X20125400E
7684000: system.cpu.l1d.prefetcher: PC:   0X4024AC
7684000: system.cpu.l1d.prefetcher: Spatial Region address:          0
7684000: system.cpu.l1d.prefetcher: Spatial Region physical address:      0X380
7684000: system.cpu.l1d.prefetcher: Spatial Region offset:        0XE
7684000: system.cpu.l1d.prefetcher: PST address added: 0X20125600E
7788000: system.cpu.l1i.prefetcher: PC:   0X470280
7788000: system.cpu.l1i.prefetcher: Spatial Region address:       0XE0
7788000: system.cpu.l1i.prefetcher: Spatial Region physical address:    0X70280
7788000: system.cpu.l1i.prefetcher: Spatial Region offset:        0XA
7788000: system.cpu.l1i.prefetcher: PST address added: 0X23814000A
8125000: system.cpu.l1i.prefetcher: PC:   0X4702C0
8125000: system.cpu.l1i.prefetcher: Spatial Region address:       0XE0
8125000: system.cpu.l1i.prefetcher: Spatial Region physical address:    0X702C0
8125000: system.cpu.l1i.prefetcher: Spatial Region offset:        0XB
8125000: system.cpu.l1i.prefetcher: PST address added: 0X23816000B
8189000: system.cpu.l1i.prefetcher: PC:   0X470300
8189000: system.cpu.l1i.prefetcher: Spatial Region address:       0XE0
8189000: system.cpu.l1i.prefetcher: Spatial Region physical address:    0X70300
8189000: system.cpu.l1i.prefetcher: Spatial Region offset:        0XC
8189000: system.cpu.l1i.prefetcher: PST address added: 0X23818000C
8281000: system.cpu.l1i.prefetcher: PC:   0X422600
8281000: system.cpu.l1i.prefetcher: Spatial Region address:       0X44
8281000: system.cpu.l1i.prefetcher: Spatial Region physical address:    0X22600
8281000: system.cpu.l1i.prefetcher: Spatial Region offset:       0X18
8281000: system.cpu.l1i.prefetcher: PST address added: 0X211300018
8358000: system.cpu.l1i.prefetcher: PC:   0X422640
8358000: system.cpu.l1i.prefetcher: Spatial Region address:       0X44
8358000: system.cpu.l1i.prefetcher: Spatial Region physical address:    0X22640
8358000: system.cpu.l1i.prefetcher: Spatial Region offset:       0X19
8358000: system.cpu.l1i.prefetcher: PST address added: 0X211320019
8469000: system.cpu.l1d.prefetcher: PC:   0X402491
8469000: system.cpu.l1d.prefetcher: Spatial Region address:          0
8469000: system.cpu.l1d.prefetcher: Spatial Region physical address:      0X3C0
8469000: system.cpu.l1d.prefetcher: Spatial Region offset:        0XF
8469000: system.cpu.l1d.prefetcher: PST address added: 0X20124880F
8547000: system.cpu.l1i.prefetcher: PC:   0X484E20
8547000: system.cpu.l1i.prefetcher: Spatial Region address:      0X109
8547000: system.cpu.l1i.prefetcher: Spatial Region physical address:    0X84E00
8547000: system.cpu.l1i.prefetcher: Spatial Region offset:       0X18
8547000: system.cpu.l1i.prefetcher: PST address added: 0X242710018
8672000: system.cpu.l1i.prefetcher: PC:   0X4227C0
8672000: system.cpu.l1i.prefetcher: Spatial Region address:       0X44
8672000: system.cpu.l1i.prefetcher: Spatial Region physical address:    0X227C0
8672000: system.cpu.l1i.prefetcher: Spatial Region offset:       0X1F
8672000: system.cpu.l1i.prefetcher: PST address added: 0X2113E001F
8736000: system.cpu.l1i.prefetcher: PC:   0X422800
8736000: system.cpu.l1i.prefetcher: Spatial Region address:       0X45
8736000: system.cpu.l1i.prefetcher: Spatial Region physical address:    0X22800
8736000: system.cpu.l1i.prefetcher: Spatial Region offset:          0
8736000: system.cpu.l1i.prefetcher: PST address added: 0X211400000
8804000: system.cpu.l1i.prefetcher: PC:   0X422840
8804000: system.cpu.l1i.prefetcher: Spatial Region address:       0X45
8804000: system.cpu.l1i.prefetcher: Spatial Region physical address:    0X22840
8804000: system.cpu.l1i.prefetcher: Spatial Region offset:        0X1
8896000: system.cpu.l1i.prefetcher: PC:   0X4224D0
8896000: system.cpu.l1i.prefetcher: Spatial Region address:       0X44
8896000: system.cpu.l1i.prefetcher: Spatial Region physical address:    0X224C0
8896000: system.cpu.l1i.prefetcher: Spatial Region offset:       0X13
8896000: system.cpu.l1i.prefetcher: PST address added: 0X211268013
8960000: system.cpu.l1i.prefetcher: PC:   0X422500
8960000: system.cpu.l1i.prefetcher: Spatial Region address:       0X44
8960000: system.cpu.l1i.prefetcher: Spatial Region physical address:    0X22500
8960000: system.cpu.l1i.prefetcher: Spatial Region offset:       0X14
8960000: system.cpu.l1i.prefetcher: PST address added: 0X211280014
9024000: system.cpu.l1i.prefetcher: PC:   0X422540
9024000: system.cpu.l1i.prefetcher: Spatial Region address:       0X44
9024000: system.cpu.l1i.prefetcher: Spatial Region physical address:    0X22540
9024000: system.cpu.l1i.prefetcher: Spatial Region offset:       0X15
9024000: system.cpu.l1i.prefetcher: PST address added: 0X2112A0015
9097000: system.cpu.l1d.prefetcher: PC:   0X402498
9097000: system.cpu.l1d.prefetcher: Spatial Region address:      0X17E
9097000: system.cpu.l1d.prefetcher: Spatial Region physical address:    0XBF078
9097000: system.cpu.l1d.prefetcher: Spatial Region offset:        0X1
9097000: system.cpu.l1d.prefetcher: PST address added: 0X20124C001
9098000: system.cpu.l1d.prefetcher: PC:   0X4024A8
9098000: system.cpu.l1d.prefetcher: Spatial Region address:          0
9098000: system.cpu.l1d.prefetcher: Spatial Region physical address:      0X400
9098000: system.cpu.l1d.prefetcher: Spatial Region offset:       0X10
9098000: system.cpu.l1d.prefetcher: PST address added: 0X201254010
9199000: system.cpu.l1i.prefetcher: PC:   0X421CC0
9199000: system.cpu.l1i.prefetcher: Spatial Region address:       0X43
9199000: system.cpu.l1i.prefetcher: Spatial Region physical address:    0X21CC0
9199000: system.cpu.l1i.prefetcher: Spatial Region offset:       0X13
9199000: system.cpu.l1i.prefetcher: PST address added: 0X210E60013
9294000: system.cpu.l1i.prefetcher: PC:   0X421D00
9294000: system.cpu.l1i.prefetcher: Spatial Region address:       0X43
9294000: system.cpu.l1i.prefetcher: Spatial Region physical address:    0X21D00
9294000: system.cpu.l1i.prefetcher: Spatial Region offset:       0X14
9294000: system.cpu.l1i.prefetcher: PST address added: 0X210E80014
9386000: system.cpu.l1i.prefetcher: PC:   0X4224B0
9386000: system.cpu.l1i.prefetcher: Spatial Region address:       0X44
9386000: system.cpu.l1i.prefetcher: Spatial Region physical address:    0X22480
9386000: system.cpu.l1i.prefetcher: Spatial Region offset:       0X12
9386000: system.cpu.l1i.prefetcher: PST address added: 0X211258012
9461000: system.cpu.l1i.prefetcher: PC:   0X422580
9461000: system.cpu.l1i.prefetcher: Spatial Region address:       0X44
9461000: system.cpu.l1i.prefetcher: Spatial Region physical address:    0X22580
9461000: system.cpu.l1i.prefetcher: Spatial Region offset:       0X16
9461000: system.cpu.l1i.prefetcher: PST address added: 0X2112C0016
9553000: system.cpu.l1i.prefetcher: PC:   0X46E320
9553000: system.cpu.l1i.prefetcher: Spatial Region address:       0XDC
9553000: system.cpu.l1i.prefetcher: Spatial Region physical address:    0X6E300
9553000: system.cpu.l1i.prefetcher: Spatial Region offset:        0XC
9553000: system.cpu.l1i.prefetcher: PST address added: 0X23719000C
9630000: system.cpu.l1i.prefetcher: PC:   0X46E340
9630000: system.cpu.l1i.prefetcher: Spatial Region address:       0XDC
9630000: system.cpu.l1i.prefetcher: Spatial Region physical address:    0X6E340
9630000: system.cpu.l1i.prefetcher: Spatial Region offset:        0XD
9630000: system.cpu.l1i.prefetcher: PST address added: 0X2371A000D
9694000: system.cpu.l1i.prefetcher: PC:   0X46E380
9694000: system.cpu.l1i.prefetcher: Spatial Region address:       0XDC
9694000: system.cpu.l1i.prefetcher: Spatial Region physical address:    0X6E380
9694000: system.cpu.l1i.prefetcher: Spatial Region offset:        0XE
9694000: system.cpu.l1i.prefetcher: PST address added: 0X2371C000E
9768000: system.cpu.l1d.prefetcher: PC:   0X4024A8
9768000: system.cpu.l1d.prefetcher: Spatial Region address:          0
9768000: system.cpu.l1d.prefetcher: Spatial Region physical address:      0X448
9768000: system.cpu.l1d.prefetcher: Spatial Region offset:       0X11
9768000: system.cpu.l1d.prefetcher: PST address added: 0X201254011
9769000: system.cpu.l1d.prefetcher: PC:   0X4024AC
9769000: system.cpu.l1d.prefetcher: Spatial Region address:          0
9769000: system.cpu.l1d.prefetcher: Spatial Region physical address:      0X440
9769000: system.cpu.l1d.prefetcher: Spatial Region offset:       0X11
9769000: system.cpu.l1d.prefetcher: PST address added: 0X201256011
9873000: system.cpu.l1i.prefetcher: PC:   0X422910
9873000: system.cpu.l1i.prefetcher: Spatial Region address:       0X45
9873000: system.cpu.l1i.prefetcher: Spatial Region physical address:    0X22900
9873000: system.cpu.l1i.prefetcher: Spatial Region offset:        0X4
9937000: system.cpu.l1i.prefetcher: PC:   0X422940
9937000: system.cpu.l1i.prefetcher: Spatial Region address:       0X45
9937000: system.cpu.l1i.prefetcher: Spatial Region physical address:    0X22940
9937000: system.cpu.l1i.prefetcher: Spatial Region offset:        0X5
10001000: system.cpu.l1i.prefetcher: PC:   0X422980
10001000: system.cpu.l1i.prefetcher: Spatial Region address:       0X45
10001000: system.cpu.l1i.prefetcher: Spatial Region physical address:    0X22980
10001000: system.cpu.l1i.prefetcher: Spatial Region offset:        0X6
10147000: system.cpu.l1d.prefetcher: PC:   0X402491
10147000: system.cpu.l1d.prefetcher: Spatial Region address:          0
10147000: system.cpu.l1d.prefetcher: Spatial Region physical address:      0X480
10147000: system.cpu.l1d.prefetcher: Spatial Region offset:       0X12
10147000: system.cpu.l1d.prefetcher: PST address added: 0X201248812
10212000: system.cpu.l1i.prefetcher: PC:   0X46E260
10212000: system.cpu.l1i.prefetcher: Spatial Region address:       0XDC
10212000: system.cpu.l1i.prefetcher: Spatial Region physical address:    0X6E240
10212000: system.cpu.l1i.prefetcher: Spatial Region offset:        0X9
10212000: system.cpu.l1i.prefetcher: PST address added: 0X237130009
10276000: system.cpu.l1i.prefetcher: PC:   0X46E280
10276000: system.cpu.l1i.prefetcher: Spatial Region address:       0XDC
10276000: system.cpu.l1i.prefetcher: Spatial Region physical address:    0X6E280
10276000: system.cpu.l1i.prefetcher: Spatial Region offset:        0XA
10276000: system.cpu.l1i.prefetcher: PST address added: 0X23714000A
10340000: system.cpu.l1i.prefetcher: PC:   0X46E2C0
10340000: system.cpu.l1i.prefetcher: Spatial Region address:       0XDC
10340000: system.cpu.l1i.prefetcher: Spatial Region physical address:    0X6E2C0
10340000: system.cpu.l1i.prefetcher: Spatial Region offset:        0XB
10340000: system.cpu.l1i.prefetcher: PST address added: 0X23716000B
10432000: system.cpu.l1i.prefetcher: PC:   0X46FB70
10432000: system.cpu.l1i.prefetcher: Spatial Region address:       0XDF
10432000: system.cpu.l1i.prefetcher: Spatial Region physical address:    0X6FB40
10432000: system.cpu.l1i.prefetcher: Spatial Region offset:        0XD
10432000: system.cpu.l1i.prefetcher: PST address added: 0X237DB800D
10496000: system.cpu.l1i.prefetcher: PC:   0X46FB80
10496000: system.cpu.l1i.prefetcher: Spatial Region address:       0XDF
10496000: system.cpu.l1i.prefetcher: Spatial Region physical address:    0X6FB80
10496000: system.cpu.l1i.prefetcher: Spatial Region offset:        0XE
10496000: system.cpu.l1i.prefetcher: PST address added: 0X237DC000E
10560000: system.cpu.l1i.prefetcher: PC:   0X46FBC0
10560000: system.cpu.l1i.prefetcher: Spatial Region address:       0XDF
10560000: system.cpu.l1i.prefetcher: Spatial Region physical address:    0X6FBC0
10560000: system.cpu.l1i.prefetcher: Spatial Region offset:        0XF
10560000: system.cpu.l1i.prefetcher: PST address added: 0X237DE000F
10656000: system.cpu.l1i.prefetcher: PC:   0X422880
10656000: system.cpu.l1i.prefetcher: Spatial Region address:       0X45
10656000: system.cpu.l1i.prefetcher: Spatial Region physical address:    0X22880
10656000: system.cpu.l1i.prefetcher: Spatial Region offset:        0X2
10724000: system.cpu.l1i.prefetcher: PC:   0X4228C0
10724000: system.cpu.l1i.prefetcher: Spatial Region address:       0X45
10724000: system.cpu.l1i.prefetcher: Spatial Region physical address:    0X228C0
10724000: system.cpu.l1i.prefetcher: Spatial Region offset:        0X3
10815000: system.cpu.l1d.prefetcher: PC:   0X402498
10815000: system.cpu.l1d.prefetcher: Spatial Region address:      0X17E
10815000: system.cpu.l1d.prefetcher: Spatial Region physical address:    0XBF038
10815000: system.cpu.l1d.prefetcher: Spatial Region offset:          0
10816000: system.cpu.l1d.prefetcher: PC:   0X4024A8
10816000: system.cpu.l1d.prefetcher: Spatial Region address:          0
10816000: system.cpu.l1d.prefetcher: Spatial Region physical address:      0X4C0
10816000: system.cpu.l1d.prefetcher: Spatial Region offset:       0X13
10816000: system.cpu.l1d.prefetcher: PST address added: 0X201254013
10916000: system.cpu.l1i.prefetcher: PC:   0X4229C0
10916000: system.cpu.l1i.prefetcher: Spatial Region address:       0X45
10916000: system.cpu.l1i.prefetcher: Spatial Region physical address:    0X229C0
10916000: system.cpu.l1i.prefetcher: Spatial Region offset:        0X7
11013000: system.cpu.l1i.prefetcher: PC:   0X4225C0
11013000: system.cpu.l1i.prefetcher: Spatial Region address:       0X44
11013000: system.cpu.l1i.prefetcher: Spatial Region physical address:    0X225C0
11013000: system.cpu.l1i.prefetcher: Spatial Region offset:       0X17
11013000: system.cpu.l1i.prefetcher: PST address added: 0X2112E0017
11154000: system.cpu.l1i.prefetcher: PC:   0X46E220
11154000: system.cpu.l1i.prefetcher: Spatial Region address:       0XDC
11154000: system.cpu.l1i.prefetcher: Spatial Region physical address:    0X6E200
11154000: system.cpu.l1i.prefetcher: Spatial Region offset:        0X8
11154000: system.cpu.l1i.prefetcher: PST address added: 0X237110008
11247000: system.cpu.l1d.prefetcher: PC:   0X4024A8
11247000: system.cpu.l1d.prefetcher: Spatial Region address:          0
11247000: system.cpu.l1d.prefetcher: Spatial Region physical address:      0X508
11247000: system.cpu.l1d.prefetcher: Spatial Region offset:       0X14
11247000: system.cpu.l1d.prefetcher: PST address added: 0X201254014
11248000: system.cpu.l1d.prefetcher: PC:   0X4024AC
11248000: system.cpu.l1d.prefetcher: Spatial Region address:          0
11248000: system.cpu.l1d.prefetcher: Spatial Region physical address:      0X500
11248000: system.cpu.l1d.prefetcher: Spatial Region offset:       0X14
11248000: system.cpu.l1d.prefetcher: PST address added: 0X201256014
11372000: system.cpu.l1i.prefetcher: PC:   0X4025CB
11372000: system.cpu.l1i.prefetcher: Spatial Region address:        0X4
11372000: system.cpu.l1i.prefetcher: Spatial Region physical address:     0X25C0
11372000: system.cpu.l1i.prefetcher: Spatial Region offset:       0X17
11372000: system.cpu.l1i.prefetcher: PST address added: 0X2012E5817
11463000: system.cpu.l1i.prefetcher: PC:   0X402600
11463000: system.cpu.l1i.prefetcher: Spatial Region address:        0X4
11463000: system.cpu.l1i.prefetcher: Spatial Region physical address:     0X2600
11463000: system.cpu.l1i.prefetcher: Spatial Region offset:       0X18
11463000: system.cpu.l1i.prefetcher: PST address added: 0X201300018
11527000: system.cpu.l1i.prefetcher: PC:   0X402C20
11527000: system.cpu.l1i.prefetcher: Spatial Region address:        0X5
11527000: system.cpu.l1i.prefetcher: Spatial Region physical address:     0X2C00
11527000: system.cpu.l1i.prefetcher: Spatial Region offset:       0X10
11527000: system.cpu.l1i.prefetcher: PST address added: 0X201610010
11591000: system.cpu.l1i.prefetcher: PC:   0X402C40
11591000: system.cpu.l1i.prefetcher: Spatial Region address:        0X5
11591000: system.cpu.l1i.prefetcher: Spatial Region physical address:     0X2C40
11591000: system.cpu.l1i.prefetcher: Spatial Region offset:       0X11
11591000: system.cpu.l1i.prefetcher: PST address added: 0X201620011
11616000: system.cpu.l1d.prefetcher: PC:   0X402C39
11616000: system.cpu.l1d.prefetcher: Spatial Region address:      0X180
11616000: system.cpu.l1d.prefetcher: Spatial Region physical address:    0XC0180
11616000: system.cpu.l1d.prefetcher: Spatial Region offset:        0X6
11616000: system.cpu.l1d.prefetcher: PST address added: 0X20161C806
11655000: system.cpu.l1i.prefetcher: PC:   0X402C80
11655000: system.cpu.l1i.prefetcher: Spatial Region address:        0X5
11655000: system.cpu.l1i.prefetcher: Spatial Region physical address:     0X2C80
11655000: system.cpu.l1i.prefetcher: Spatial Region offset:       0X12
11655000: system.cpu.l1i.prefetcher: PST address added: 0X201640012
11722000: system.cpu.l1i.prefetcher: PC:   0X402CC0
11722000: system.cpu.l1i.prefetcher: Spatial Region address:        0X5
11722000: system.cpu.l1i.prefetcher: Spatial Region physical address:     0X2CC0
11722000: system.cpu.l1i.prefetcher: Spatial Region offset:       0X13
11722000: system.cpu.l1i.prefetcher: PST address added: 0X201660013
11723000: system.cpu.l1d.prefetcher: PC:   0X402C7D
11723000: system.cpu.l1d.prefetcher: Spatial Region address:          0
11723000: system.cpu.l1d.prefetcher: Spatial Region physical address:       0X40
11723000: system.cpu.l1d.prefetcher: Spatial Region offset:        0X1
11723000: system.cpu.l1d.prefetcher: PST address added: 0X20163E801
11786000: system.cpu.l1i.prefetcher: PC:   0X402D00
11786000: system.cpu.l1i.prefetcher: Spatial Region address:        0X5
11786000: system.cpu.l1i.prefetcher: Spatial Region physical address:     0X2D00
11786000: system.cpu.l1i.prefetcher: Spatial Region offset:       0X14
11786000: system.cpu.l1i.prefetcher: PST address added: 0X201680014
11862000: system.cpu.l1d.prefetcher: PC:   0X402C82
11862000: system.cpu.l1d.prefetcher: Spatial Region address:          0
11862000: system.cpu.l1d.prefetcher: Spatial Region physical address:       0XA8
11862000: system.cpu.l1d.prefetcher: Spatial Region offset:        0X2
11863000: system.cpu.l1d.prefetcher: PC:   0X402C86
11863000: system.cpu.l1d.prefetcher: Spatial Region address:          0
11863000: system.cpu.l1d.prefetcher: Spatial Region physical address:       0XA0
11863000: system.cpu.l1d.prefetcher: Spatial Region offset:        0X2
11863000: system.cpu.l1d.prefetcher: PST address added: 0X201643002
11864000: system.cpu.l1i.prefetcher: PC:   0X402D40
11864000: system.cpu.l1i.prefetcher: Spatial Region address:        0X5
11864000: system.cpu.l1i.prefetcher: Spatial Region physical address:     0X2D40
11864000: system.cpu.l1i.prefetcher: Spatial Region offset:       0X15
11864000: system.cpu.l1i.prefetcher: PST address added: 0X2016A0015
11942000: system.cpu.l1d.prefetcher: PC:   0X402C82
11942000: system.cpu.l1d.prefetcher: Spatial Region address:          0
11942000: system.cpu.l1d.prefetcher: Spatial Region physical address:       0XE0
11942000: system.cpu.l1d.prefetcher: Spatial Region offset:        0X3
11942000: system.cpu.l1d.prefetcher: PST address added: 0X201641003
11943000: system.cpu.l1d.prefetcher: PC:   0X402C86
11943000: system.cpu.l1d.prefetcher: Spatial Region address:          0
11943000: system.cpu.l1d.prefetcher: Spatial Region physical address:       0XD8
11943000: system.cpu.l1d.prefetcher: Spatial Region offset:        0X3
11943000: system.cpu.l1d.prefetcher: PST address added: 0X201643003
12013000: system.cpu.l1d.prefetcher: PC:   0X402C82
12013000: system.cpu.l1d.prefetcher: Spatial Region address:          0
12013000: system.cpu.l1d.prefetcher: Spatial Region physical address:      0X118
12013000: system.cpu.l1d.prefetcher: Spatial Region offset:        0X4
12013000: system.cpu.l1d.prefetcher: PST address added: 0X201641004
12014000: system.cpu.l1d.prefetcher: PC:   0X402C86
12014000: system.cpu.l1d.prefetcher: Spatial Region address:          0
12014000: system.cpu.l1d.prefetcher: Spatial Region physical address:      0X110
12014000: system.cpu.l1d.prefetcher: Spatial Region offset:        0X4
12014000: system.cpu.l1d.prefetcher: PST address added: 0X201643004
12084000: system.cpu.l1d.prefetcher: PC:   0X402C82
12084000: system.cpu.l1d.prefetcher: Spatial Region address:          0
12084000: system.cpu.l1d.prefetcher: Spatial Region physical address:      0X150
12084000: system.cpu.l1d.prefetcher: Spatial Region offset:        0X5
12084000: system.cpu.l1d.prefetcher: PST address added: 0X201641005
12085000: system.cpu.l1d.prefetcher: PC:   0X402C86
12085000: system.cpu.l1d.prefetcher: Spatial Region address:          0
12085000: system.cpu.l1d.prefetcher: Spatial Region physical address:      0X148
12085000: system.cpu.l1d.prefetcher: Spatial Region offset:        0X5
12085000: system.cpu.l1d.prefetcher: PST address added: 0X201643005
12155000: system.cpu.l1d.prefetcher: PC:   0X402C82
12155000: system.cpu.l1d.prefetcher: Spatial Region address:          0
12155000: system.cpu.l1d.prefetcher: Spatial Region physical address:      0X188
12155000: system.cpu.l1d.prefetcher: Spatial Region offset:        0X6
12155000: system.cpu.l1d.prefetcher: PST address added: 0X201641006
12156000: system.cpu.l1d.prefetcher: PC:   0X402C86
12156000: system.cpu.l1d.prefetcher: Spatial Region address:          0
12156000: system.cpu.l1d.prefetcher: Spatial Region physical address:      0X180
12156000: system.cpu.l1d.prefetcher: Spatial Region offset:        0X6
12226000: system.cpu.l1d.prefetcher: PC:   0X402C82
12226000: system.cpu.l1d.prefetcher: Spatial Region address:          0
12226000: system.cpu.l1d.prefetcher: Spatial Region physical address:      0X1C0
12226000: system.cpu.l1d.prefetcher: Spatial Region offset:        0X7
12293000: system.cpu.l1d.prefetcher: PC:   0X402CA4
12293000: system.cpu.l1d.prefetcher: Spatial Region address:      0X180
12293000: system.cpu.l1d.prefetcher: Spatial Region physical address:    0XC0220
12293000: system.cpu.l1d.prefetcher: Spatial Region offset:        0X8
12293000: system.cpu.l1d.prefetcher: PST address added: 0X201652008
12456000: system.cpu.l1i.prefetcher: PC:   0X402D80
12456000: system.cpu.l1i.prefetcher: Spatial Region address:        0X5
12456000: system.cpu.l1i.prefetcher: Spatial Region physical address:     0X2D80
12456000: system.cpu.l1i.prefetcher: Spatial Region offset:       0X16
12456000: system.cpu.l1i.prefetcher: PST address added: 0X2016C0016
12520000: system.cpu.l1i.prefetcher: PC:   0X449390
12520000: system.cpu.l1i.prefetcher: Spatial Region address:       0X92
12520000: system.cpu.l1i.prefetcher: Spatial Region physical address:    0X49380
12520000: system.cpu.l1i.prefetcher: Spatial Region offset:        0XE
12520000: system.cpu.l1i.prefetcher: PST address added: 0X2249C800E
12597000: system.cpu.l1i.prefetcher: PC:   0X4493C0
12597000: system.cpu.l1i.prefetcher: Spatial Region address:       0X92
12597000: system.cpu.l1i.prefetcher: Spatial Region physical address:    0X493C0
12597000: system.cpu.l1i.prefetcher: Spatial Region offset:        0XF
12597000: system.cpu.l1i.prefetcher: PST address added: 0X2249E000F
12604000: system.cpu.l1d.prefetcher: PC:   0X449396
12604000: system.cpu.l1d.prefetcher: Spatial Region address:      0X187
12604000: system.cpu.l1d.prefetcher: Spatial Region physical address:    0XC3CB8
12604000: system.cpu.l1d.prefetcher: Spatial Region offset:       0X12
12604000: system.cpu.l1d.prefetcher: PST address added: 0X2249CB012
12608000: system.cpu.l1d.prefetcher: PC:   0X44939E
12608000: system.cpu.l1d.prefetcher: Spatial Region address:      0X183
12608000: system.cpu.l1d.prefetcher: Spatial Region physical address:    0XC1F38
12608000: system.cpu.l1d.prefetcher: Spatial Region offset:       0X1C
12608000: system.cpu.l1d.prefetcher: PST address added: 0X2249CF01C
12661000: system.cpu.l1i.prefetcher: PC:   0X449400
12661000: system.cpu.l1i.prefetcher: Spatial Region address:       0X92
12661000: system.cpu.l1i.prefetcher: Spatial Region physical address:    0X49400
12661000: system.cpu.l1i.prefetcher: Spatial Region offset:       0X10
12661000: system.cpu.l1i.prefetcher: PST address added: 0X224A00010
12729000: system.cpu.l1i.prefetcher: PC:   0X449440
12729000: system.cpu.l1i.prefetcher: Spatial Region address:       0X92
12729000: system.cpu.l1i.prefetcher: Spatial Region physical address:    0X49440
12729000: system.cpu.l1i.prefetcher: Spatial Region offset:       0X11
12729000: system.cpu.l1i.prefetcher: PST address added: 0X224A20011
12793000: system.cpu.l1i.prefetcher: PC:   0X471690
12793000: system.cpu.l1i.prefetcher: Spatial Region address:       0XE2
12793000: system.cpu.l1i.prefetcher: Spatial Region physical address:    0X71680
12793000: system.cpu.l1i.prefetcher: Spatial Region offset:       0X1A
12793000: system.cpu.l1i.prefetcher: PST address added: 0X238B4801A
12857000: system.cpu.l1i.prefetcher: PC:   0X4716C0
12857000: system.cpu.l1i.prefetcher: Spatial Region address:       0XE2
12857000: system.cpu.l1i.prefetcher: Spatial Region physical address:    0X716C0
12857000: system.cpu.l1i.prefetcher: Spatial Region offset:       0X1B
12857000: system.cpu.l1i.prefetcher: PST address added: 0X238B6001B
12925000: system.cpu.l1i.prefetcher: PC:   0X471700
12925000: system.cpu.l1i.prefetcher: Spatial Region address:       0XE2
12925000: system.cpu.l1i.prefetcher: Spatial Region physical address:    0X71700
12925000: system.cpu.l1i.prefetcher: Spatial Region offset:       0X1C
12925000: system.cpu.l1i.prefetcher: PST address added: 0X238B8001C
12999000: system.cpu.l1i.prefetcher: PC:   0X449480
12999000: system.cpu.l1i.prefetcher: Spatial Region address:       0X92
12999000: system.cpu.l1i.prefetcher: Spatial Region physical address:    0X49480
12999000: system.cpu.l1i.prefetcher: Spatial Region offset:       0X12
12999000: system.cpu.l1i.prefetcher: PST address added: 0X224A40012
13114000: system.cpu.l1i.prefetcher: PC:   0X471740
13114000: system.cpu.l1i.prefetcher: Spatial Region address:       0XE2
13114000: system.cpu.l1i.prefetcher: Spatial Region physical address:    0X71740
13114000: system.cpu.l1i.prefetcher: Spatial Region offset:       0X1D
13114000: system.cpu.l1i.prefetcher: PST address added: 0X238BA001D
13187000: system.cpu.l1i.prefetcher: PC:   0X4494C0
13187000: system.cpu.l1i.prefetcher: Spatial Region address:       0X92
13187000: system.cpu.l1i.prefetcher: Spatial Region physical address:    0X494C0
13187000: system.cpu.l1i.prefetcher: Spatial Region offset:       0X13
13187000: system.cpu.l1i.prefetcher: PST address added: 0X224A60013
13260000: system.cpu.l1d.prefetcher: PC:   0X402CE0
13260000: system.cpu.l1d.prefetcher: Spatial Region address:      0X184
13260000: system.cpu.l1d.prefetcher: Spatial Region physical address:    0XC2320
13260000: system.cpu.l1d.prefetcher: Spatial Region offset:        0XC
13260000: system.cpu.l1d.prefetcher: PST address added: 0X20167000C
13314000: system.cpu.l1i.prefetcher: PC:   0X402DC0
13314000: system.cpu.l1i.prefetcher: Spatial Region address:        0X5
13314000: system.cpu.l1i.prefetcher: Spatial Region physical address:     0X2DC0
13314000: system.cpu.l1i.prefetcher: Spatial Region offset:       0X17
13314000: system.cpu.l1i.prefetcher: PST address added: 0X2016E0017
13341000: system.cpu.l1d.prefetcher: PC:   0X402D32
13341000: system.cpu.l1d.prefetcher: Spatial Region address:      0X180
13341000: system.cpu.l1d.prefetcher: Spatial Region physical address:    0XC0670
13341000: system.cpu.l1d.prefetcher: Spatial Region offset:       0X19
13341000: system.cpu.l1d.prefetcher: PST address added: 0X201699019
13342000: system.cpu.l1d.prefetcher: PC:   0X402D39
13342000: system.cpu.l1d.prefetcher: Spatial Region address:      0X184
13342000: system.cpu.l1d.prefetcher: Spatial Region physical address:    0XC2340
13342000: system.cpu.l1d.prefetcher: Spatial Region offset:        0XD
13342000: system.cpu.l1d.prefetcher: PST address added: 0X20169C80D
13405000: system.cpu.l1i.prefetcher: PC:   0X401060
13405000: system.cpu.l1i.prefetcher: Spatial Region address:        0X2
13405000: system.cpu.l1i.prefetcher: Spatial Region physical address:     0X1040
13405000: system.cpu.l1i.prefetcher: Spatial Region offset:        0X1
13405000: system.cpu.l1i.prefetcher: PST address added: 0X200830001
13406000: system.cpu.l1d.prefetcher: PC:   0X402D40
13406000: system.cpu.l1d.prefetcher: Spatial Region address:      0X184
13406000: system.cpu.l1d.prefetcher: Spatial Region physical address:    0XC2348
13406000: system.cpu.l1d.prefetcher: Spatial Region offset:        0XD
13406000: system.cpu.l1d.prefetcher: PST address added: 0X2016A000D
13496000: system.cpu.l1i.prefetcher: PC:   0X401080
13496000: system.cpu.l1i.prefetcher: Spatial Region address:        0X2
13496000: system.cpu.l1i.prefetcher: Spatial Region physical address:     0X1080
13496000: system.cpu.l1i.prefetcher: Spatial Region offset:        0X2
13560000: system.cpu.l1i.prefetcher: PC:   0X445BA0
13560000: system.cpu.l1i.prefetcher: Spatial Region address:       0X8B
13560000: system.cpu.l1i.prefetcher: Spatial Region physical address:    0X45B80
13560000: system.cpu.l1i.prefetcher: Spatial Region offset:        0XE
13560000: system.cpu.l1i.prefetcher: PST address added: 0X222DD000E
13651000: system.cpu.l1i.prefetcher: PC:   0X445BC0
13651000: system.cpu.l1i.prefetcher: Spatial Region address:       0X8B
13651000: system.cpu.l1i.prefetcher: Spatial Region physical address:    0X45BC0
13651000: system.cpu.l1i.prefetcher: Spatial Region offset:        0XF
13651000: system.cpu.l1i.prefetcher: PST address added: 0X222DE000F
13660000: system.cpu.l1d.prefetcher: PC:   0X445BBB
13660000: system.cpu.l1d.prefetcher: Spatial Region address:      0X178
13660000: system.cpu.l1d.prefetcher: Spatial Region physical address:    0XBC0C0
13660000: system.cpu.l1d.prefetcher: Spatial Region offset:        0X3
13660000: system.cpu.l1d.prefetcher: PST address added: 0X222DDD803
13661000: system.cpu.l1d.prefetcher: PC:   0X445BBB
13661000: system.cpu.l1d.prefetcher: Spatial Region address:      0X178
13661000: system.cpu.l1d.prefetcher: Spatial Region physical address:    0XBC0C8
13661000: system.cpu.l1d.prefetcher: Spatial Region offset:        0X3
13661000: system.cpu.l1d.prefetcher: PST address added: 0X222DDD803
13715000: system.cpu.l1i.prefetcher: PC:   0X445C00
13715000: system.cpu.l1i.prefetcher: Spatial Region address:       0X8B
13715000: system.cpu.l1i.prefetcher: Spatial Region physical address:    0X45C00
13715000: system.cpu.l1i.prefetcher: Spatial Region offset:       0X10
13715000: system.cpu.l1i.prefetcher: PST address added: 0X222E00010
13784000: system.cpu.l1i.prefetcher: PC:   0X445C40
13784000: system.cpu.l1i.prefetcher: Spatial Region address:       0X8B
13784000: system.cpu.l1i.prefetcher: Spatial Region physical address:    0X45C40
13784000: system.cpu.l1i.prefetcher: Spatial Region offset:       0X11
13784000: system.cpu.l1i.prefetcher: PST address added: 0X222E20011
13785000: system.cpu.l1d.prefetcher: PC:   0X445BC3
13785000: system.cpu.l1d.prefetcher: Spatial Region address:      0X18B
13785000: system.cpu.l1d.prefetcher: Spatial Region physical address:    0XC5820
13785000: system.cpu.l1d.prefetcher: Spatial Region offset:          0
13785000: system.cpu.l1d.prefetcher: PST address added: 0X222DE1800
13786000: system.cpu.l1d.prefetcher: PC:   0X445BC3
13786000: system.cpu.l1d.prefetcher: Spatial Region address:      0X18B
13786000: system.cpu.l1d.prefetcher: Spatial Region physical address:    0XC5828
13786000: system.cpu.l1d.prefetcher: Spatial Region offset:          0
13786000: system.cpu.l1d.prefetcher: PST address added: 0X222DE1800
13894000: system.cpu.l1i.prefetcher: PC:   0X402E00
13894000: system.cpu.l1i.prefetcher: Spatial Region address:        0X5
13894000: system.cpu.l1i.prefetcher: Spatial Region physical address:     0X2E00
13894000: system.cpu.l1i.prefetcher: Spatial Region offset:       0X18
13894000: system.cpu.l1i.prefetcher: PST address added: 0X201700018
13897000: system.cpu.l1d.prefetcher: PC:   0X402D65
13897000: system.cpu.l1d.prefetcher: Spatial Region address:      0X18B
13897000: system.cpu.l1d.prefetcher: Spatial Region physical address:    0XC5888
13897000: system.cpu.l1d.prefetcher: Spatial Region offset:        0X2
13900000: system.cpu.l1d.prefetcher: PC:   0X402D6E
13900000: system.cpu.l1d.prefetcher: Spatial Region address:      0X18B
13900000: system.cpu.l1d.prefetcher: Spatial Region physical address:    0XC5880
13900000: system.cpu.l1d.prefetcher: Spatial Region offset:        0X2
13900000: system.cpu.l1d.prefetcher: PST address added: 0X2016B7002
13994000: system.cpu.l1i.prefetcher: PC:   0X402E40
13994000: system.cpu.l1i.prefetcher: Spatial Region address:        0X5
13994000: system.cpu.l1i.prefetcher: Spatial Region physical address:     0X2E40
13994000: system.cpu.l1i.prefetcher: Spatial Region offset:       0X19
13994000: system.cpu.l1i.prefetcher: PST address added: 0X201720019
14072000: system.cpu.l1d.prefetcher: PC:   0X402DA4
14072000: system.cpu.l1d.prefetcher: Spatial Region address:      0X184
14072000: system.cpu.l1d.prefetcher: Spatial Region physical address:    0XC2720
14072000: system.cpu.l1d.prefetcher: Spatial Region offset:       0X1C
14072000: system.cpu.l1d.prefetcher: PST address added: 0X2016D201C
14081000: system.cpu.l1d.prefetcher: PC:   0X402DCF
14081000: system.cpu.l1d.prefetcher: Spatial Region address:      0X182
14081000: system.cpu.l1d.prefetcher: Spatial Region physical address:    0XC12B8
14081000: system.cpu.l1d.prefetcher: Spatial Region offset:        0XA
14081000: system.cpu.l1d.prefetcher: PST address added: 0X2016E780A
14081000: system.cpu.l1i.prefetcher: PC:   0X402E80
14081000: system.cpu.l1i.prefetcher: Spatial Region address:        0X5
14081000: system.cpu.l1i.prefetcher: Spatial Region physical address:     0X2E80
14081000: system.cpu.l1i.prefetcher: Spatial Region offset:       0X1A
14081000: system.cpu.l1i.prefetcher: PST address added: 0X20174001A
14165000: system.cpu.l1d.prefetcher: PC:   0X402DF5
14165000: system.cpu.l1d.prefetcher: Spatial Region address:      0X182
14165000: system.cpu.l1d.prefetcher: Spatial Region physical address:    0XC1290
14165000: system.cpu.l1d.prefetcher: Spatial Region offset:        0XA
14165000: system.cpu.l1d.prefetcher: PST address added: 0X2016FA80A
14214000: system.cpu.l1i.prefetcher: PC:   0X402EC0
14214000: system.cpu.l1i.prefetcher: Spatial Region address:        0X5
14214000: system.cpu.l1i.prefetcher: Spatial Region physical address:     0X2EC0
14214000: system.cpu.l1i.prefetcher: Spatial Region offset:       0X1B
14214000: system.cpu.l1i.prefetcher: PST address added: 0X20176001B
14282000: system.cpu.l1i.prefetcher: PC:   0X402640
14282000: system.cpu.l1i.prefetcher: Spatial Region address:        0X4
14282000: system.cpu.l1i.prefetcher: Spatial Region physical address:     0X2640
14282000: system.cpu.l1i.prefetcher: Spatial Region offset:       0X19
14288000: system.cpu.l1d.prefetcher: PC:   0X4025D6
14288000: system.cpu.l1d.prefetcher: Spatial Region address:      0X18B
14288000: system.cpu.l1d.prefetcher: Spatial Region physical address:    0XC58C8
14288000: system.cpu.l1d.prefetcher: Spatial Region offset:        0X3
14288000: system.cpu.l1d.prefetcher: PST address added: 0X2012EB003
14346000: system.cpu.l1i.prefetcher: PC:   0X40284E
14346000: system.cpu.l1i.prefetcher: Spatial Region address:        0X5
14346000: system.cpu.l1i.prefetcher: Spatial Region physical address:     0X2840
14346000: system.cpu.l1i.prefetcher: Spatial Region offset:        0X1
14346000: system.cpu.l1i.prefetcher: PST address added: 0X201427001
14410000: system.cpu.l1i.prefetcher: PC:   0X402880
14410000: system.cpu.l1i.prefetcher: Spatial Region address:        0X5
14410000: system.cpu.l1i.prefetcher: Spatial Region physical address:     0X2880
14410000: system.cpu.l1i.prefetcher: Spatial Region offset:        0X2
14474000: system.cpu.l1i.prefetcher: PC:   0X44E470
14474000: system.cpu.l1i.prefetcher: Spatial Region address:       0X9C
14474000: system.cpu.l1i.prefetcher: Spatial Region physical address:    0X4E440
14474000: system.cpu.l1i.prefetcher: Spatial Region offset:       0X11
14474000: system.cpu.l1i.prefetcher: PST address added: 0X227238011
14565000: system.cpu.l1i.prefetcher: PC:   0X44E480
14565000: system.cpu.l1i.prefetcher: Spatial Region address:       0X9C
14565000: system.cpu.l1i.prefetcher: Spatial Region physical address:    0X4E480
14565000: system.cpu.l1i.prefetcher: Spatial Region offset:       0X12
14565000: system.cpu.l1i.prefetcher: PST address added: 0X227240012
14629000: system.cpu.l1i.prefetcher: PC:   0X44E4C0
14629000: system.cpu.l1i.prefetcher: Spatial Region address:       0X9C
14629000: system.cpu.l1i.prefetcher: Spatial Region physical address:    0X4E4C0
14629000: system.cpu.l1i.prefetcher: Spatial Region offset:       0X13
14629000: system.cpu.l1i.prefetcher: PST address added: 0X227260013
14636000: system.cpu.l1d.prefetcher: PC:   0X44E484
14636000: system.cpu.l1d.prefetcher: Spatial Region address:      0X187
14636000: system.cpu.l1d.prefetcher: Spatial Region physical address:    0XC3B38
14636000: system.cpu.l1d.prefetcher: Spatial Region offset:        0XC
14636000: system.cpu.l1d.prefetcher: PST address added: 0X22724200C
14693000: system.cpu.l1i.prefetcher: PC:   0X471440
14693000: system.cpu.l1i.prefetcher: Spatial Region address:       0XE2
14693000: system.cpu.l1i.prefetcher: Spatial Region physical address:    0X71440
14693000: system.cpu.l1i.prefetcher: Spatial Region offset:       0X11
14693000: system.cpu.l1i.prefetcher: PST address added: 0X238A20011
14757000: system.cpu.l1i.prefetcher: PC:   0X471480
14757000: system.cpu.l1i.prefetcher: Spatial Region address:       0XE2
14757000: system.cpu.l1i.prefetcher: Spatial Region physical address:    0X71480
14757000: system.cpu.l1i.prefetcher: Spatial Region offset:       0X12
14757000: system.cpu.l1i.prefetcher: PST address added: 0X238A40012
14826000: system.cpu.l1i.prefetcher: PC:   0X4714C0
14826000: system.cpu.l1i.prefetcher: Spatial Region address:       0XE2
14826000: system.cpu.l1i.prefetcher: Spatial Region physical address:    0X714C0
14826000: system.cpu.l1i.prefetcher: Spatial Region offset:       0X13
14826000: system.cpu.l1i.prefetcher: PST address added: 0X238A60013
14895000: system.cpu.l1i.prefetcher: PC:   0X44E500
14895000: system.cpu.l1i.prefetcher: Spatial Region address:       0X9C
14895000: system.cpu.l1i.prefetcher: Spatial Region physical address:    0X4E500
14895000: system.cpu.l1i.prefetcher: Spatial Region offset:       0X14
14895000: system.cpu.l1i.prefetcher: PST address added: 0X227280014
14898000: system.cpu.l1d.prefetcher: PC:   0X44E49E
14898000: system.cpu.l1d.prefetcher: Spatial Region address:      0X187
14898000: system.cpu.l1d.prefetcher: Spatial Region physical address:    0XC3C02
14898000: system.cpu.l1d.prefetcher: Spatial Region offset:       0X10
14965000: system.cpu.l1i.prefetcher: PC:   0X44E540
14965000: system.cpu.l1i.prefetcher: Spatial Region address:       0X9C
14965000: system.cpu.l1i.prefetcher: Spatial Region physical address:    0X4E540
14965000: system.cpu.l1i.prefetcher: Spatial Region offset:       0X15
14965000: system.cpu.l1i.prefetcher: PST address added: 0X2272A0015
15133000: system.cpu.l1i.prefetcher: PC:   0X44E580
15133000: system.cpu.l1i.prefetcher: Spatial Region address:       0X9C
15133000: system.cpu.l1i.prefetcher: Spatial Region physical address:    0X4E580
15133000: system.cpu.l1i.prefetcher: Spatial Region offset:       0X16
15133000: system.cpu.l1i.prefetcher: PST address added: 0X2272C0016
15223000: system.cpu.l1i.prefetcher: PC:   0X4028C0
15223000: system.cpu.l1i.prefetcher: Spatial Region address:        0X5
15223000: system.cpu.l1i.prefetcher: Spatial Region physical address:     0X28C0
15223000: system.cpu.l1i.prefetcher: Spatial Region offset:        0X3
15223000: system.cpu.l1i.prefetcher: PST address added: 0X201460003
15320000: system.cpu.l1i.prefetcher: PC:   0X402680
15320000: system.cpu.l1i.prefetcher: Spatial Region address:        0X4
15320000: system.cpu.l1i.prefetcher: Spatial Region physical address:     0X2680
15320000: system.cpu.l1i.prefetcher: Spatial Region offset:       0X1A
15321000: system.cpu.l1d.prefetcher: PC:   0X402600
15321000: system.cpu.l1d.prefetcher: Spatial Region address:      0X17D
15321000: system.cpu.l1d.prefetcher: Spatial Region physical address:    0XBEF80
15321000: system.cpu.l1d.prefetcher: Spatial Region offset:       0X1E
15321000: system.cpu.l1d.prefetcher: PST address added: 0X20130001E
15406000: system.cpu.l1i.prefetcher: PC:   0X4026C0
15406000: system.cpu.l1i.prefetcher: Spatial Region address:        0X4
15406000: system.cpu.l1i.prefetcher: Spatial Region physical address:     0X26C0
15406000: system.cpu.l1i.prefetcher: Spatial Region offset:       0X1B
15488000: system.cpu.l1i.prefetcher: PC:   0X44E5C0
15488000: system.cpu.l1i.prefetcher: Spatial Region address:       0X9C
15488000: system.cpu.l1i.prefetcher: Spatial Region physical address:    0X4E5C0
15488000: system.cpu.l1i.prefetcher: Spatial Region offset:       0X17
15488000: system.cpu.l1i.prefetcher: PST address added: 0X2272E0017
15554000: system.cpu.l1i.prefetcher: PC:   0X44E600
15554000: system.cpu.l1i.prefetcher: Spatial Region address:       0X9C
15554000: system.cpu.l1i.prefetcher: Spatial Region physical address:    0X4E600
15554000: system.cpu.l1i.prefetcher: Spatial Region offset:       0X18
[...]
118868000: system.cpu.l1i.prefetcher: PC:   0X4100C0
118868000: system.cpu.l1i.prefetcher: Spatial Region address:       0X20
118868000: system.cpu.l1i.prefetcher: Spatial Region physical address:    0X100C0
118868000: system.cpu.l1i.prefetcher: Spatial Region offset:        0X3
118940000: system.cpu.l1i.prefetcher: PC:   0X410100
118940000: system.cpu.l1i.prefetcher: Spatial Region address:       0X20
118940000: system.cpu.l1i.prefetcher: Spatial Region physical address:    0X10100
118940000: system.cpu.l1i.prefetcher: Spatial Region offset:        0X4
119019000: system.cpu.l1i.prefetcher: PC:   0X403000
119019000: system.cpu.l1i.prefetcher: Spatial Region address:        0X6
119019000: system.cpu.l1i.prefetcher: Spatial Region physical address:     0X3000
119019000: system.cpu.l1i.prefetcher: Spatial Region offset:          0
119019000: system.cpu.l1i.prefetcher: PST address added: 0X201800000
119096000: system.cpu.l1i.prefetcher: PC:   0X4016E0
119096000: system.cpu.l1i.prefetcher: Spatial Region address:        0X2
119096000: system.cpu.l1i.prefetcher: Spatial Region physical address:     0X16C0
119096000: system.cpu.l1i.prefetcher: Spatial Region offset:       0X1B
119096000: system.cpu.l1i.prefetcher: PST address added: 0X200B7001B
119165000: system.cpu.l1d.prefetcher: PC:   0X4016E4
119165000: system.cpu.l1d.prefetcher: Spatial Region address:      0X183
119165000: system.cpu.l1d.prefetcher: Spatial Region physical address:    0XC1FF8
119165000: system.cpu.l1d.prefetcher: Spatial Region offset:       0X1F
119165000: system.cpu.l1d.prefetcher: PST address added: 0X200B7201F
119318000: system.cpu.l1i.prefetcher: PC:   0X401C20
119318000: system.cpu.l1i.prefetcher: Spatial Region address:        0X3
119318000: system.cpu.l1i.prefetcher: Spatial Region physical address:     0X1C00
119318000: system.cpu.l1i.prefetcher: Spatial Region offset:       0X10
119372000: system.cpu.l1i.prefetcher: PC:   0X492230
119372000: system.cpu.l1i.prefetcher: Spatial Region address:      0X124
119372000: system.cpu.l1i.prefetcher: Spatial Region physical address:    0X92200
119372000: system.cpu.l1i.prefetcher: Spatial Region offset:        0X8
119449000: system.cpu.l1i.prefetcher: PC:   0X492240
119449000: system.cpu.l1i.prefetcher: Spatial Region address:      0X124
119449000: system.cpu.l1i.prefetcher: Spatial Region physical address:    0X92240
119449000: system.cpu.l1i.prefetcher: Spatial Region offset:        0X9
119513000: system.cpu.l1i.prefetcher: PC:   0X492100
119513000: system.cpu.l1i.prefetcher: Spatial Region address:      0X124
119513000: system.cpu.l1i.prefetcher: Spatial Region physical address:    0X92100
119513000: system.cpu.l1i.prefetcher: Spatial Region offset:        0X4
119577000: system.cpu.l1i.prefetcher: PC:   0X492140
119577000: system.cpu.l1i.prefetcher: Spatial Region address:      0X124
119577000: system.cpu.l1i.prefetcher: Spatial Region physical address:    0X92140
119577000: system.cpu.l1i.prefetcher: Spatial Region offset:        0X5
119645000: system.cpu.l1i.prefetcher: PC:   0X492180
119645000: system.cpu.l1i.prefetcher: Spatial Region address:      0X124
119645000: system.cpu.l1i.prefetcher: Spatial Region physical address:    0X92180
119645000: system.cpu.l1i.prefetcher: Spatial Region offset:        0X6
119713000: system.cpu.l1i.prefetcher: PC:   0X4921C0
119713000: system.cpu.l1i.prefetcher: Spatial Region address:      0X124
119713000: system.cpu.l1i.prefetcher: Spatial Region physical address:    0X921C0
119713000: system.cpu.l1i.prefetcher: Spatial Region offset:        0X7
119832000: system.cpu.l1i.prefetcher: PC:   0X403040
119832000: system.cpu.l1i.prefetcher: Spatial Region address:        0X6
119832000: system.cpu.l1i.prefetcher: Spatial Region physical address:     0X3040
119832000: system.cpu.l1i.prefetcher: Spatial Region offset:        0X1
119896000: system.cpu.l1i.prefetcher: PC:   0X4946D0
119896000: system.cpu.l1i.prefetcher: Spatial Region address:      0X128
119896000: system.cpu.l1i.prefetcher: Spatial Region physical address:    0X946C0
119896000: system.cpu.l1i.prefetcher: Spatial Region offset:       0X1B
119896000: system.cpu.l1i.prefetcher: PST address added: 0X24A36801B
119973000: system.cpu.l1i.prefetcher: PC:   0X494700
119973000: system.cpu.l1i.prefetcher: Spatial Region address:      0X128
119973000: system.cpu.l1i.prefetcher: Spatial Region physical address:    0X94700
119973000: system.cpu.l1i.prefetcher: Spatial Region offset:       0X1C
119973000: system.cpu.l1i.prefetcher: PST address added: 0X24A38001C
120041000: system.cpu.l1i.prefetcher: PC:   0X410140
120041000: system.cpu.l1i.prefetcher: Spatial Region address:       0X20
120041000: system.cpu.l1i.prefetcher: Spatial Region physical address:    0X10140
120041000: system.cpu.l1i.prefetcher: Spatial Region offset:        0X5
120135000: system.cpu.l1i.prefetcher: PC:   0X410180
120135000: system.cpu.l1i.prefetcher: Spatial Region address:       0X20
120135000: system.cpu.l1i.prefetcher: Spatial Region physical address:    0X10180
120135000: system.cpu.l1i.prefetcher: Spatial Region offset:        0X6
120201000: system.cpu.l1i.prefetcher: PC:   0X4101C0
120201000: system.cpu.l1i.prefetcher: Spatial Region address:       0X20
120201000: system.cpu.l1i.prefetcher: Spatial Region physical address:    0X101C0
120201000: system.cpu.l1i.prefetcher: Spatial Region offset:        0X7
120292000: system.cpu.l1i.prefetcher: PC:   0X410200
120292000: system.cpu.l1i.prefetcher: Spatial Region address:       0X20
120292000: system.cpu.l1i.prefetcher: Spatial Region physical address:    0X10200
120292000: system.cpu.l1i.prefetcher: Spatial Region offset:        0X8
120316000: system.cpu.l1d.prefetcher: PC:   0X4101E8
120316000: system.cpu.l1d.prefetcher: Spatial Region address:      0X182
120316000: system.cpu.l1d.prefetcher: Spatial Region physical address:    0XC1228
120316000: system.cpu.l1d.prefetcher: Spatial Region offset:        0X8
120316000: system.cpu.l1d.prefetcher: PST address added: 0X2080F4008
120356000: system.cpu.l1i.prefetcher: PC:   0X410240
120356000: system.cpu.l1i.prefetcher: Spatial Region address:       0X20
120356000: system.cpu.l1i.prefetcher: Spatial Region physical address:    0X10240
120356000: system.cpu.l1i.prefetcher: Spatial Region offset:        0X9
120420000: system.cpu.l1i.prefetcher: PC:   0X4189E0
120420000: system.cpu.l1i.prefetcher: Spatial Region address:       0X31
120420000: system.cpu.l1i.prefetcher: Spatial Region physical address:    0X189C0
120420000: system.cpu.l1i.prefetcher: Spatial Region offset:        0X7
120420000: system.cpu.l1i.prefetcher: PST address added: 0X20C4F0007
120497000: system.cpu.l1i.prefetcher: PC:   0X418A00
120497000: system.cpu.l1i.prefetcher: Spatial Region address:       0X31
120497000: system.cpu.l1i.prefetcher: Spatial Region physical address:    0X18A00
120497000: system.cpu.l1i.prefetcher: Spatial Region offset:        0X8
120497000: system.cpu.l1i.prefetcher: PST address added: 0X20C500008
120561000: system.cpu.l1i.prefetcher: PC:   0X418A40
120561000: system.cpu.l1i.prefetcher: Spatial Region address:       0X31
120561000: system.cpu.l1i.prefetcher: Spatial Region physical address:    0X18A40
120561000: system.cpu.l1i.prefetcher: Spatial Region offset:        0X9
120561000: system.cpu.l1i.prefetcher: PST address added: 0X20C520009
120625000: system.cpu.l1i.prefetcher: PC:   0X4186E0
120625000: system.cpu.l1i.prefetcher: Spatial Region address:       0X30
120625000: system.cpu.l1i.prefetcher: Spatial Region physical address:    0X186C0
120625000: system.cpu.l1i.prefetcher: Spatial Region offset:       0X1B
120625000: system.cpu.l1i.prefetcher: PST address added: 0X20C37001B
120689000: system.cpu.l1i.prefetcher: PC:   0X418700
120689000: system.cpu.l1i.prefetcher: Spatial Region address:       0X30
120689000: system.cpu.l1i.prefetcher: Spatial Region physical address:    0X18700
120689000: system.cpu.l1i.prefetcher: Spatial Region offset:       0X1C
120689000: system.cpu.l1i.prefetcher: PST address added: 0X20C38001C
120753000: system.cpu.l1i.prefetcher: PC:   0X418740
120753000: system.cpu.l1i.prefetcher: Spatial Region address:       0X30
120753000: system.cpu.l1i.prefetcher: Spatial Region physical address:    0X18740
120753000: system.cpu.l1i.prefetcher: Spatial Region offset:       0X1D
120753000: system.cpu.l1i.prefetcher: PST address added: 0X20C3A001D
120817000: system.cpu.l1i.prefetcher: PC:   0X418910
120817000: system.cpu.l1i.prefetcher: Spatial Region address:       0X31
120817000: system.cpu.l1i.prefetcher: Spatial Region physical address:    0X18900
120817000: system.cpu.l1i.prefetcher: Spatial Region offset:        0X4
120817000: system.cpu.l1i.prefetcher: PST address added: 0X20C488004
120881000: system.cpu.l1i.prefetcher: PC:   0X418940
120881000: system.cpu.l1i.prefetcher: Spatial Region address:       0X31
120881000: system.cpu.l1i.prefetcher: Spatial Region physical address:    0X18940
120881000: system.cpu.l1i.prefetcher: Spatial Region offset:        0X5
120949000: system.cpu.l1i.prefetcher: PC:   0X418780
120949000: system.cpu.l1i.prefetcher: Spatial Region address:       0X30
120949000: system.cpu.l1i.prefetcher: Spatial Region physical address:    0X18780
120949000: system.cpu.l1i.prefetcher: Spatial Region offset:       0X1E
120949000: system.cpu.l1i.prefetcher: PST address added: 0X20C3C001E
120953000: system.cpu.l1d.prefetcher: PC:   0X41872E
120953000: system.cpu.l1d.prefetcher: Spatial Region address:      0X183
120953000: system.cpu.l1d.prefetcher: Spatial Region physical address:    0XC1C58
120953000: system.cpu.l1d.prefetcher: Spatial Region offset:       0X11
121013000: system.cpu.l1i.prefetcher: PC:   0X4187C0
121013000: system.cpu.l1i.prefetcher: Spatial Region address:       0X30
121013000: system.cpu.l1i.prefetcher: Spatial Region physical address:    0X187C0
121013000: system.cpu.l1i.prefetcher: Spatial Region offset:       0X1F
121013000: system.cpu.l1i.prefetcher: PST address added: 0X20C3E001F
121047000: system.cpu.l1d.prefetcher: PC:   0X418790
121047000: system.cpu.l1d.prefetcher: Spatial Region address:      0X17E
121047000: system.cpu.l1d.prefetcher: Spatial Region physical address:    0XBF1E0
121047000: system.cpu.l1d.prefetcher: Spatial Region offset:        0X7
121077000: system.cpu.l1i.prefetcher: PC:   0X418834
121077000: system.cpu.l1i.prefetcher: Spatial Region address:       0X31
121077000: system.cpu.l1i.prefetcher: Spatial Region physical address:    0X18800
121077000: system.cpu.l1i.prefetcher: Spatial Region offset:          0
121141000: system.cpu.l1i.prefetcher: PC:   0X418840
121141000: system.cpu.l1i.prefetcher: Spatial Region address:       0X31
121141000: system.cpu.l1i.prefetcher: Spatial Region physical address:    0X18840
121141000: system.cpu.l1i.prefetcher: Spatial Region offset:        0X1
121207000: system.cpu.l1i.prefetcher: PC:   0X418880
121207000: system.cpu.l1i.prefetcher: Spatial Region address:       0X31
121207000: system.cpu.l1i.prefetcher: Spatial Region physical address:    0X18880
121207000: system.cpu.l1i.prefetcher: Spatial Region offset:        0X2
121271000: system.cpu.l1i.prefetcher: PC:   0X4188C0
121271000: system.cpu.l1i.prefetcher: Spatial Region address:       0X31
121271000: system.cpu.l1i.prefetcher: Spatial Region physical address:    0X188C0
121271000: system.cpu.l1i.prefetcher: Spatial Region offset:        0X3
121271000: system.cpu.l1i.prefetcher: PST address added: 0X20C460003
121274000: system.cpu.l1d.prefetcher: PC:   0X41887D
121274000: system.cpu.l1d.prefetcher: Spatial Region address:      0X17E
121274000: system.cpu.l1d.prefetcher: Spatial Region physical address:    0XBF200
121274000: system.cpu.l1d.prefetcher: Spatial Region offset:        0X8
121337000: system.cpu.l1d.prefetcher: PC:   0X41888B
121337000: system.cpu.l1d.prefetcher: Spatial Region address:      0X17E
121337000: system.cpu.l1d.prefetcher: Spatial Region physical address:    0XBF160
121337000: system.cpu.l1d.prefetcher: Spatial Region offset:        0X5
121338000: system.cpu.l1d.prefetcher: PC:   0X41888F
121338000: system.cpu.l1d.prefetcher: Spatial Region address:      0X17E
121338000: system.cpu.l1d.prefetcher: Spatial Region physical address:    0XBF168
121338000: system.cpu.l1d.prefetcher: Spatial Region offset:        0X5
121430000: system.cpu.l1d.prefetcher: PC:   0X41882B
121430000: system.cpu.l1d.prefetcher: Spatial Region address:      0X17E
121430000: system.cpu.l1d.prefetcher: Spatial Region physical address:    0XBF1A8
121430000: system.cpu.l1d.prefetcher: Spatial Region offset:        0X6
121496000: system.cpu.l1d.prefetcher: PC:   0X41883F
121496000: system.cpu.l1d.prefetcher: Spatial Region address:      0X17E
121496000: system.cpu.l1d.prefetcher: Spatial Region physical address:    0XBF320
121496000: system.cpu.l1d.prefetcher: Spatial Region offset:        0XC
121559000: system.cpu.l1d.prefetcher: PC:   0X41887D
121559000: system.cpu.l1d.prefetcher: Spatial Region address:      0X17E
121559000: system.cpu.l1d.prefetcher: Spatial Region physical address:    0XBF3E0
121559000: system.cpu.l1d.prefetcher: Spatial Region offset:        0XF
121622000: system.cpu.l1d.prefetcher: PC:   0X41888B
121622000: system.cpu.l1d.prefetcher: Spatial Region address:      0X17E
121622000: system.cpu.l1d.prefetcher: Spatial Region physical address:    0XBF340
121622000: system.cpu.l1d.prefetcher: Spatial Region offset:        0XD
121623000: system.cpu.l1d.prefetcher: PC:   0X41888F
121623000: system.cpu.l1d.prefetcher: Spatial Region address:      0X17E
121623000: system.cpu.l1d.prefetcher: Spatial Region physical address:    0XBF348
121623000: system.cpu.l1d.prefetcher: Spatial Region offset:        0XD
121714000: system.cpu.l1d.prefetcher: PC:   0X41882B
121714000: system.cpu.l1d.prefetcher: Spatial Region address:      0X17E
121714000: system.cpu.l1d.prefetcher: Spatial Region physical address:    0XBF388
121714000: system.cpu.l1d.prefetcher: Spatial Region offset:        0XE
121780000: system.cpu.l1d.prefetcher: PC:   0X41883F
121780000: system.cpu.l1d.prefetcher: Spatial Region address:      0X17E
121780000: system.cpu.l1d.prefetcher: Spatial Region physical address:    0XBF500
121780000: system.cpu.l1d.prefetcher: Spatial Region offset:       0X14
121843000: system.cpu.l1d.prefetcher: PC:   0X41887D
121843000: system.cpu.l1d.prefetcher: Spatial Region address:      0X17E
121843000: system.cpu.l1d.prefetcher: Spatial Region physical address:    0XBF5C0
121843000: system.cpu.l1d.prefetcher: Spatial Region offset:       0X17
121938000: system.cpu.l1d.prefetcher: PC:   0X41882B
121938000: system.cpu.l1d.prefetcher: Spatial Region address:      0X17E
121938000: system.cpu.l1d.prefetcher: Spatial Region physical address:    0XBF568
121938000: system.cpu.l1d.prefetcher: Spatial Region offset:       0X15
122036000: system.cpu.l1i.prefetcher: PC:   0X418980
122036000: system.cpu.l1i.prefetcher: Spatial Region address:       0X31
122036000: system.cpu.l1i.prefetcher: Spatial Region physical address:    0X18980
122036000: system.cpu.l1i.prefetcher: Spatial Region offset:        0X6
122139000: system.cpu.l1i.prefetcher: PC:   0X418A80
122139000: system.cpu.l1i.prefetcher: Spatial Region address:       0X31
122139000: system.cpu.l1i.prefetcher: Spatial Region physical address:    0X18A80
122139000: system.cpu.l1i.prefetcher: Spatial Region offset:        0XA
122203000: system.cpu.l1i.prefetcher: PC:   0X418C58
122203000: system.cpu.l1i.prefetcher: Spatial Region address:       0X31
122203000: system.cpu.l1i.prefetcher: Spatial Region physical address:    0X18C40
122203000: system.cpu.l1i.prefetcher: Spatial Region offset:       0X11
122203000: system.cpu.l1i.prefetcher: PST address added: 0X20C62C011
122280000: system.cpu.l1i.prefetcher: PC:   0X418C80
122280000: system.cpu.l1i.prefetcher: Spatial Region address:       0X31
122280000: system.cpu.l1i.prefetcher: Spatial Region physical address:    0X18C80
122280000: system.cpu.l1i.prefetcher: Spatial Region offset:       0X12
122280000: system.cpu.l1i.prefetcher: PST address added: 0X20C640012
122350000: system.cpu.l1i.prefetcher: PC:   0X418AC0
122350000: system.cpu.l1i.prefetcher: Spatial Region address:       0X31
122350000: system.cpu.l1i.prefetcher: Spatial Region physical address:    0X18AC0
122350000: system.cpu.l1i.prefetcher: Spatial Region offset:        0XB
122350000: system.cpu.l1i.prefetcher: PST address added: 0X20C56000B
122418000: system.cpu.l1i.prefetcher: PC:   0X418B00
122418000: system.cpu.l1i.prefetcher: Spatial Region address:       0X31
122418000: system.cpu.l1i.prefetcher: Spatial Region physical address:    0X18B00
122418000: system.cpu.l1i.prefetcher: Spatial Region offset:        0XC
122418000: system.cpu.l1i.prefetcher: PST address added: 0X20C58000C
122492000: system.cpu.l1i.prefetcher: PC:   0X418B40
122492000: system.cpu.l1i.prefetcher: Spatial Region address:       0X31
122492000: system.cpu.l1i.prefetcher: Spatial Region physical address:    0X18B40
122492000: system.cpu.l1i.prefetcher: Spatial Region offset:        0XD
122492000: system.cpu.l1i.prefetcher: PST address added: 0X20C5A000D
122574000: system.cpu.l1d.prefetcher: PC:   0X418AB8
122574000: system.cpu.l1d.prefetcher: Spatial Region address:      0X17E
122574000: system.cpu.l1d.prefetcher: Spatial Region physical address:    0XBF588
122574000: system.cpu.l1d.prefetcher: Spatial Region offset:       0X16
122647000: system.cpu.l1i.prefetcher: PC:   0X418BB0
122647000: system.cpu.l1i.prefetcher: Spatial Region address:       0X31
122647000: system.cpu.l1i.prefetcher: Spatial Region physical address:    0X18B80
122647000: system.cpu.l1i.prefetcher: Spatial Region offset:        0XE
122647000: system.cpu.l1i.prefetcher: PST address added: 0X20C5D800E
122711000: system.cpu.l1i.prefetcher: PC:   0X418BC0
122711000: system.cpu.l1i.prefetcher: Spatial Region address:       0X31
122711000: system.cpu.l1i.prefetcher: Spatial Region physical address:    0X18BC0
122711000: system.cpu.l1i.prefetcher: Spatial Region offset:        0XF
122711000: system.cpu.l1i.prefetcher: PST address added: 0X20C5E000F
122775000: system.cpu.l1i.prefetcher: PC:   0X418C00
122775000: system.cpu.l1i.prefetcher: Spatial Region address:       0X31
122775000: system.cpu.l1i.prefetcher: Spatial Region physical address:    0X18C00
122775000: system.cpu.l1i.prefetcher: Spatial Region offset:       0X10
122775000: system.cpu.l1i.prefetcher: PST address added: 0X20C600010
122858000: system.cpu.l1i.prefetcher: PC:   0X418CC0
122858000: system.cpu.l1i.prefetcher: Spatial Region address:       0X31
122858000: system.cpu.l1i.prefetcher: Spatial Region physical address:    0X18CC0
122858000: system.cpu.l1i.prefetcher: Spatial Region offset:       0X13
122858000: system.cpu.l1i.prefetcher: PST address added: 0X20C660013
122938000: system.cpu.l1i.prefetcher: PC:   0X447F80
122938000: system.cpu.l1i.prefetcher: Spatial Region address:       0X8F
122938000: system.cpu.l1i.prefetcher: Spatial Region physical address:    0X47F80
122938000: system.cpu.l1i.prefetcher: Spatial Region offset:       0X1E
122938000: system.cpu.l1i.prefetcher: PST address added: 0X223FC001E
123015000: system.cpu.l1i.prefetcher: PC:   0X447FC0
123015000: system.cpu.l1i.prefetcher: Spatial Region address:       0X8F
123015000: system.cpu.l1i.prefetcher: Spatial Region physical address:    0X47FC0
123015000: system.cpu.l1i.prefetcher: Spatial Region offset:       0X1F
123015000: system.cpu.l1i.prefetcher: PST address added: 0X223FE001F
123083000: system.cpu.l1i.prefetcher: PC:   0X448000
123083000: system.cpu.l1i.prefetcher: Spatial Region address:       0X90
123083000: system.cpu.l1i.prefetcher: Spatial Region physical address:    0X48000
123083000: system.cpu.l1i.prefetcher: Spatial Region offset:          0
123083000: system.cpu.l1i.prefetcher: PST address added: 0X224000000
Exit Eventexiting with last active thread context
Dump stats at the end of the ROI!
