gem5 Simulator System.  http://gem5.org
gem5 is copyrighted software; use the --copyright option for details.

gem5 version 20.1.0.2
gem5 compiled Dec  7 2021 03:10:33
gem5 started Dec  7 2021 03:12:45
gem5 executing on ARCH-750, pid 857924
command line: /data/home/ycc32/450_project/gem5/build/X86/gem5.opt --debug-flags=HWPrefetch -re --outdir=/data/home/ycc32/450_project/gem5/results/X86/run_micro/CCl/Minor4/Slow/DDR3_2133_8x8/1GHz gem5-config/run_micro.py Minor4 Slow microbenchmark/CCl/bench.X86 DDR3_2133_8x8 --clock=1GHz

1GHz CPU speed and DRAM = DDR3_2133_8x8
system.py: init L2 cache with size 1MB
Global frequency set at 1000000000000 ticks per second
   1000: system.cpu.l1i.prefetcher: PC:   0X401BE0
   1000: system.cpu.l1i.prefetcher: Spatial Region address:        0X3
   1000: system.cpu.l1i.prefetcher: Spatial Region physical address:     0X1BC0
   1000: system.cpu.l1i.prefetcher: Spatial Region offset:        0XF
   1000: system.cpu.l1i.prefetcher: PST address added: 0X200DF000F
  79000: system.cpu.l1i.prefetcher: PC:   0X401C00
  79000: system.cpu.l1i.prefetcher: Spatial Region address:        0X3
  79000: system.cpu.l1i.prefetcher: Spatial Region physical address:     0X1C00
  79000: system.cpu.l1i.prefetcher: Spatial Region offset:       0X10
  79000: system.cpu.l1i.prefetcher: PST address added: 0X200E00010
  82000: system.cpu.l1d.prefetcher: PC:   0X401BE9
  82000: system.cpu.l1d.prefetcher: Spatial Region address:      0X189
  82000: system.cpu.l1d.prefetcher: Spatial Region physical address:    0XC4E40
  82000: system.cpu.l1d.prefetcher: Spatial Region offset:       0X19
  82000: system.cpu.l1d.prefetcher: PST address added: 0X200DF4819
 143000: system.cpu.l1i.prefetcher: PC:   0X401C40
 143000: system.cpu.l1i.prefetcher: Spatial Region address:        0X3
 143000: system.cpu.l1i.prefetcher: Spatial Region physical address:     0X1C40
 143000: system.cpu.l1i.prefetcher: Spatial Region offset:       0X11
 143000: system.cpu.l1i.prefetcher: PST address added: 0X200E20011
 161000: system.cpu.l1d.prefetcher: PC:   0X401BF1
 161000: system.cpu.l1d.prefetcher: Spatial Region address:      0X189
 161000: system.cpu.l1d.prefetcher: Spatial Region physical address:    0XC4E38
 161000: system.cpu.l1d.prefetcher: Spatial Region offset:       0X18
 161000: system.cpu.l1d.prefetcher: PST address added: 0X200DF8818
 162000: system.cpu.l1d.prefetcher: PC:   0X401BF2
 162000: system.cpu.l1d.prefetcher: Spatial Region address:      0X189
 162000: system.cpu.l1d.prefetcher: Spatial Region physical address:    0XC4E30
 162000: system.cpu.l1d.prefetcher: Spatial Region offset:       0X18
 162000: system.cpu.l1d.prefetcher: PST address added: 0X200DF9018
 207000: system.cpu.l1i.prefetcher: PC:   0X4020F0
 207000: system.cpu.l1i.prefetcher: Spatial Region address:        0X4
 207000: system.cpu.l1i.prefetcher: Spatial Region physical address:     0X20C0
 207000: system.cpu.l1i.prefetcher: Spatial Region offset:        0X3
 207000: system.cpu.l1i.prefetcher: PST address added: 0X201078003
 284000: system.cpu.l1i.prefetcher: PC:   0X402100
 284000: system.cpu.l1i.prefetcher: Spatial Region address:        0X4
 284000: system.cpu.l1i.prefetcher: Spatial Region physical address:     0X2100
 284000: system.cpu.l1i.prefetcher: Spatial Region offset:        0X4
 284000: system.cpu.l1i.prefetcher: PST address added: 0X201080004
 348000: system.cpu.l1i.prefetcher: PC:   0X402140
 348000: system.cpu.l1i.prefetcher: Spatial Region address:        0X4
 348000: system.cpu.l1i.prefetcher: Spatial Region physical address:     0X2140
 348000: system.cpu.l1i.prefetcher: Spatial Region offset:        0X5
 348000: system.cpu.l1i.prefetcher: PST address added: 0X2010A0005
 359000: system.cpu.l1d.prefetcher: PC:   0X40210E
 359000: system.cpu.l1d.prefetcher: Spatial Region address:      0X189
 359000: system.cpu.l1d.prefetcher: Spatial Region physical address:    0XC4D30
 359000: system.cpu.l1d.prefetcher: Spatial Region offset:       0X14
 359000: system.cpu.l1d.prefetcher: PST address added: 0X201087014
 362000: system.cpu.l1d.prefetcher: PC:   0X40211A
 362000: system.cpu.l1d.prefetcher: Spatial Region address:      0X189
 362000: system.cpu.l1d.prefetcher: Spatial Region physical address:    0XC4D38
 362000: system.cpu.l1d.prefetcher: Spatial Region offset:       0X14
 362000: system.cpu.l1d.prefetcher: PST address added: 0X20108D014
 416000: system.cpu.l1i.prefetcher: PC:   0X402180
 416000: system.cpu.l1i.prefetcher: Spatial Region address:        0X4
 416000: system.cpu.l1i.prefetcher: Spatial Region physical address:     0X2180
 416000: system.cpu.l1i.prefetcher: Spatial Region offset:        0X6
 416000: system.cpu.l1i.prefetcher: PST address added: 0X2010C0006
 422000: system.cpu.l1d.prefetcher: PC:   0X402131
 422000: system.cpu.l1d.prefetcher: Spatial Region address:      0X182
 422000: system.cpu.l1d.prefetcher: Spatial Region physical address:    0XC16C8
 422000: system.cpu.l1d.prefetcher: Spatial Region offset:       0X1B
 422000: system.cpu.l1d.prefetcher: PST address added: 0X20109881B
 485000: system.cpu.l1i.prefetcher: PC:   0X401C80
 485000: system.cpu.l1i.prefetcher: Spatial Region address:        0X3
 485000: system.cpu.l1i.prefetcher: Spatial Region physical address:     0X1C80
 485000: system.cpu.l1i.prefetcher: Spatial Region offset:       0X12
 485000: system.cpu.l1i.prefetcher: PST address added: 0X200E40012
 582000: system.cpu.l1i.prefetcher: PC:   0X4021C0
 582000: system.cpu.l1i.prefetcher: Spatial Region address:        0X4
 582000: system.cpu.l1i.prefetcher: Spatial Region physical address:     0X21C0
 582000: system.cpu.l1i.prefetcher: Spatial Region offset:        0X7
 582000: system.cpu.l1i.prefetcher: PST address added: 0X2010E0007
 589000: system.cpu.l1d.prefetcher: PC:   0X402153
 589000: system.cpu.l1d.prefetcher: Spatial Region address:      0X185
 589000: system.cpu.l1d.prefetcher: Spatial Region physical address:    0XC2CE8
 589000: system.cpu.l1d.prefetcher: Spatial Region offset:       0X13
 589000: system.cpu.l1d.prefetcher: PST address added: 0X2010A9813
 592000: system.cpu.l1d.prefetcher: PC:   0X40215A
 592000: system.cpu.l1d.prefetcher: Spatial Region address:      0X17D
 592000: system.cpu.l1d.prefetcher: Spatial Region physical address:    0XBEA70
 592000: system.cpu.l1d.prefetcher: Spatial Region offset:        0X9
 592000: system.cpu.l1d.prefetcher: PST address added: 0X2010AD009
 646000: system.cpu.l1i.prefetcher: PC:   0X402200
 646000: system.cpu.l1i.prefetcher: Spatial Region address:        0X4
 646000: system.cpu.l1i.prefetcher: Spatial Region physical address:     0X2200
 646000: system.cpu.l1i.prefetcher: Spatial Region offset:        0X8
 646000: system.cpu.l1i.prefetcher: PST address added: 0X201100008
 737000: system.cpu.l1i.prefetcher: PC:   0X44C3F0
 737000: system.cpu.l1i.prefetcher: Spatial Region address:       0X98
 737000: system.cpu.l1i.prefetcher: Spatial Region physical address:    0X4C3C0
 737000: system.cpu.l1i.prefetcher: Spatial Region offset:        0XF
 737000: system.cpu.l1i.prefetcher: PST address added: 0X2261F800F
 814000: system.cpu.l1i.prefetcher: PC:   0X44C400
 814000: system.cpu.l1i.prefetcher: Spatial Region address:       0X98
 814000: system.cpu.l1i.prefetcher: Spatial Region physical address:    0X4C400
 814000: system.cpu.l1i.prefetcher: Spatial Region offset:       0X10
 814000: system.cpu.l1i.prefetcher: PST address added: 0X226200010
 821000: system.cpu.l1d.prefetcher: PC:   0X44C3F7
 821000: system.cpu.l1d.prefetcher: Spatial Region address:      0X186
 821000: system.cpu.l1d.prefetcher: Spatial Region physical address:    0XC37E0
 821000: system.cpu.l1d.prefetcher: Spatial Region offset:       0X1F
 821000: system.cpu.l1d.prefetcher: PST address added: 0X2261FB81F
 878000: system.cpu.l1i.prefetcher: PC:   0X44C440
 878000: system.cpu.l1i.prefetcher: Spatial Region address:       0X98
 878000: system.cpu.l1i.prefetcher: Spatial Region physical address:    0X4C440
 878000: system.cpu.l1i.prefetcher: Spatial Region offset:       0X11
 878000: system.cpu.l1i.prefetcher: PST address added: 0X226220011
 887000: system.cpu.l1d.prefetcher: PC:   0X44C409
 887000: system.cpu.l1d.prefetcher: Spatial Region address:      0X185
 887000: system.cpu.l1d.prefetcher: Spatial Region physical address:    0XC2D00
 887000: system.cpu.l1d.prefetcher: Spatial Region offset:       0X14
 887000: system.cpu.l1d.prefetcher: PST address added: 0X226204814
 942000: system.cpu.l1i.prefetcher: PC:   0X44C480
 942000: system.cpu.l1i.prefetcher: Spatial Region address:       0X98
 942000: system.cpu.l1i.prefetcher: Spatial Region physical address:    0X4C480
 942000: system.cpu.l1i.prefetcher: Spatial Region offset:       0X12
 942000: system.cpu.l1i.prefetcher: PST address added: 0X226240012
 952000: system.cpu.l1d.prefetcher: PC:   0X44C418
 952000: system.cpu.l1d.prefetcher: Spatial Region address:      0X187
 952000: system.cpu.l1d.prefetcher: Spatial Region physical address:    0XC3890
 952000: system.cpu.l1d.prefetcher: Spatial Region offset:        0X2
 952000: system.cpu.l1d.prefetcher: PST address added: 0X22620C002
1006000: system.cpu.l1i.prefetcher: PC:   0X44C4C0
1006000: system.cpu.l1i.prefetcher: Spatial Region address:       0X98
1006000: system.cpu.l1i.prefetcher: Spatial Region physical address:    0X4C4C0
1006000: system.cpu.l1i.prefetcher: Spatial Region offset:       0X13
1006000: system.cpu.l1i.prefetcher: PST address added: 0X226260013
1017000: system.cpu.l1d.prefetcher: PC:   0X44C426
1017000: system.cpu.l1d.prefetcher: Spatial Region address:      0X182
1017000: system.cpu.l1d.prefetcher: Spatial Region physical address:    0XC1118
1017000: system.cpu.l1d.prefetcher: Spatial Region offset:        0X4
1017000: system.cpu.l1d.prefetcher: PST address added: 0X226213004
1108000: system.cpu.l1d.prefetcher: PC:   0X44C434
1108000: system.cpu.l1d.prefetcher: Spatial Region address:      0X187
1108000: system.cpu.l1d.prefetcher: Spatial Region physical address:    0XC3848
1108000: system.cpu.l1d.prefetcher: Spatial Region offset:        0X1
1108000: system.cpu.l1d.prefetcher: PST address added: 0X22621A001
1171000: system.cpu.l1d.prefetcher: PC:   0X44C43B
1171000: system.cpu.l1d.prefetcher: Spatial Region address:      0X187
1171000: system.cpu.l1d.prefetcher: Spatial Region physical address:    0XC3810
1171000: system.cpu.l1d.prefetcher: Spatial Region offset:          0
1172000: system.cpu.l1i.prefetcher: PC:   0X44C500
1172000: system.cpu.l1i.prefetcher: Spatial Region address:       0X98
1172000: system.cpu.l1i.prefetcher: Spatial Region physical address:    0X4C500
1172000: system.cpu.l1i.prefetcher: Spatial Region offset:       0X14
1172000: system.cpu.l1i.prefetcher: PST address added: 0X226280014
1236000: system.cpu.l1d.prefetcher: PC:   0X44C442
1236000: system.cpu.l1d.prefetcher: Spatial Region address:      0X189
1236000: system.cpu.l1d.prefetcher: Spatial Region physical address:    0XC4CF8
1236000: system.cpu.l1d.prefetcher: Spatial Region offset:       0X13
1236000: system.cpu.l1d.prefetcher: PST address added: 0X226221013
1237000: system.cpu.l1d.prefetcher: PC:   0X44C447
1237000: system.cpu.l1d.prefetcher: Spatial Region address:      0X189
1237000: system.cpu.l1d.prefetcher: Spatial Region physical address:    0XC4CF0
1237000: system.cpu.l1d.prefetcher: Spatial Region offset:       0X13
1237000: system.cpu.l1d.prefetcher: PST address added: 0X226223813
1305000: system.cpu.l1d.prefetcher: PC:   0X44C45B
1305000: system.cpu.l1d.prefetcher: Spatial Region address:      0X17D
1305000: system.cpu.l1d.prefetcher: Spatial Region physical address:    0XBEAA0
1305000: system.cpu.l1d.prefetcher: Spatial Region offset:        0XA
1305000: system.cpu.l1d.prefetcher: PST address added: 0X22622D80A
1384000: system.cpu.l1i.prefetcher: PC:   0X44C540
1384000: system.cpu.l1i.prefetcher: Spatial Region address:       0X98
1384000: system.cpu.l1i.prefetcher: Spatial Region physical address:    0X4C540
1384000: system.cpu.l1i.prefetcher: Spatial Region offset:       0X15
1384000: system.cpu.l1i.prefetcher: PST address added: 0X2262A0015
1404000: system.cpu.l1d.prefetcher: PC:   0X44C4B4
1404000: system.cpu.l1d.prefetcher: Spatial Region address:      0X189
1404000: system.cpu.l1d.prefetcher: Spatial Region physical address:    0XC4CB8
1404000: system.cpu.l1d.prefetcher: Spatial Region offset:       0X12
1404000: system.cpu.l1d.prefetcher: PST address added: 0X22625A012
1405000: system.cpu.l1d.prefetcher: PC:   0X44C4BB
1405000: system.cpu.l1d.prefetcher: Spatial Region address:      0X189
1405000: system.cpu.l1d.prefetcher: Spatial Region physical address:    0XC4CB0
1405000: system.cpu.l1d.prefetcher: Spatial Region offset:       0X12
1405000: system.cpu.l1d.prefetcher: PST address added: 0X22625D812
1448000: system.cpu.l1i.prefetcher: PC:   0X44C580
1448000: system.cpu.l1i.prefetcher: Spatial Region address:       0X98
1448000: system.cpu.l1i.prefetcher: Spatial Region physical address:    0X4C580
1448000: system.cpu.l1i.prefetcher: Spatial Region offset:       0X16
1448000: system.cpu.l1i.prefetcher: PST address added: 0X2262C0016
1467000: system.cpu.l1d.prefetcher: PC:   0X44C4D2
1467000: system.cpu.l1d.prefetcher: Spatial Region address:      0X131
1467000: system.cpu.l1d.prefetcher: Spatial Region physical address:    0X98FB8
1467000: system.cpu.l1d.prefetcher: Spatial Region offset:       0X1E
1467000: system.cpu.l1d.prefetcher: PST address added: 0X22626901E
1546000: system.cpu.l1i.prefetcher: PC:   0X44C5E0
1546000: system.cpu.l1i.prefetcher: Spatial Region address:       0X98
1546000: system.cpu.l1i.prefetcher: Spatial Region physical address:    0X4C5C0
1546000: system.cpu.l1i.prefetcher: Spatial Region offset:       0X17
1546000: system.cpu.l1i.prefetcher: PST address added: 0X2262F0017
1610000: system.cpu.l1i.prefetcher: PC:   0X44C600
1610000: system.cpu.l1i.prefetcher: Spatial Region address:       0X98
1610000: system.cpu.l1i.prefetcher: Spatial Region physical address:    0X4C600
1610000: system.cpu.l1i.prefetcher: Spatial Region offset:       0X18
1610000: system.cpu.l1i.prefetcher: PST address added: 0X226300018
1683000: system.cpu.l1d.prefetcher: PC:   0X44C4D2
1683000: system.cpu.l1d.prefetcher: Spatial Region address:      0X131
1683000: system.cpu.l1d.prefetcher: Spatial Region physical address:    0X98F74
1683000: system.cpu.l1d.prefetcher: Spatial Region offset:       0X1D
1683000: system.cpu.l1d.prefetcher: PST address added: 0X22626901D
1749000: system.cpu.l1i.prefetcher: PC:   0X44C6B0
1749000: system.cpu.l1i.prefetcher: Spatial Region address:       0X98
1749000: system.cpu.l1i.prefetcher: Spatial Region physical address:    0X4C680
1749000: system.cpu.l1i.prefetcher: Spatial Region offset:       0X1A
1749000: system.cpu.l1i.prefetcher: PST address added: 0X22635801A
1813000: system.cpu.l1i.prefetcher: PC:   0X44C6C0
1813000: system.cpu.l1i.prefetcher: Spatial Region address:       0X98
1813000: system.cpu.l1i.prefetcher: Spatial Region physical address:    0X4C6C0
1813000: system.cpu.l1i.prefetcher: Spatial Region offset:       0X1B
1813000: system.cpu.l1i.prefetcher: PST address added: 0X22636001B
1877000: system.cpu.l1i.prefetcher: PC:   0X44C700
1877000: system.cpu.l1i.prefetcher: Spatial Region address:       0X98
1877000: system.cpu.l1i.prefetcher: Spatial Region physical address:    0X4C700
1877000: system.cpu.l1i.prefetcher: Spatial Region offset:       0X1C
1877000: system.cpu.l1i.prefetcher: PST address added: 0X22638001C
1881000: system.cpu.l1d.prefetcher: PC:   0X44C6C2
1881000: system.cpu.l1d.prefetcher: Spatial Region address:      0X189
1881000: system.cpu.l1d.prefetcher: Spatial Region physical address:    0XC4E80
1881000: system.cpu.l1d.prefetcher: Spatial Region offset:       0X1A
1881000: system.cpu.l1d.prefetcher: PST address added: 0X22636101A
1941000: system.cpu.l1i.prefetcher: PC:   0X44C740
1941000: system.cpu.l1i.prefetcher: Spatial Region address:       0X98
1941000: system.cpu.l1i.prefetcher: Spatial Region physical address:    0X4C740
1941000: system.cpu.l1i.prefetcher: Spatial Region offset:       0X1D
1941000: system.cpu.l1i.prefetcher: PST address added: 0X2263A001D
2020000: system.cpu.l1i.prefetcher: PC:   0X44C780
2020000: system.cpu.l1i.prefetcher: Spatial Region address:       0X98
2020000: system.cpu.l1i.prefetcher: Spatial Region physical address:    0X4C780
2020000: system.cpu.l1i.prefetcher: Spatial Region offset:       0X1E
2020000: system.cpu.l1i.prefetcher: PST address added: 0X2263C001E
2084000: system.cpu.l1i.prefetcher: PC:   0X44C7C0
2084000: system.cpu.l1i.prefetcher: Spatial Region address:       0X98
2084000: system.cpu.l1i.prefetcher: Spatial Region physical address:    0X4C7C0
2084000: system.cpu.l1i.prefetcher: Spatial Region offset:       0X1F
2084000: system.cpu.l1i.prefetcher: PST address added: 0X2263E001F
2197000: system.cpu.l1i.prefetcher: PC:   0X44C800
2197000: system.cpu.l1i.prefetcher: Spatial Region address:       0X99
2197000: system.cpu.l1i.prefetcher: Spatial Region physical address:    0X4C800
2197000: system.cpu.l1i.prefetcher: Spatial Region offset:          0
2197000: system.cpu.l1i.prefetcher: PST address added: 0X226400000
2296000: system.cpu.l1d.prefetcher: PC:   0X44C4F0
2296000: system.cpu.l1d.prefetcher: Spatial Region address:      0X189
2296000: system.cpu.l1d.prefetcher: Spatial Region physical address:    0XC4EC0
2296000: system.cpu.l1d.prefetcher: Spatial Region offset:       0X1B
2296000: system.cpu.l1d.prefetcher: PST address added: 0X22627801B
2389000: system.cpu.l1i.prefetcher: PC:   0X44C840
2389000: system.cpu.l1i.prefetcher: Spatial Region address:       0X99
2389000: system.cpu.l1i.prefetcher: Spatial Region physical address:    0X4C840
2389000: system.cpu.l1i.prefetcher: Spatial Region offset:        0X1
2539000: system.cpu.l1d.prefetcher: PC:   0X44C4F0
2539000: system.cpu.l1d.prefetcher: Spatial Region address:      0X189
2539000: system.cpu.l1d.prefetcher: Spatial Region physical address:    0XC4F00
2539000: system.cpu.l1d.prefetcher: Spatial Region offset:       0X1C
2539000: system.cpu.l1d.prefetcher: PST address added: 0X22627801C
2733000: system.cpu.l1d.prefetcher: PC:   0X44C703
2733000: system.cpu.l1d.prefetcher: Spatial Region address:      0X189
2733000: system.cpu.l1d.prefetcher: Spatial Region physical address:    0XC4F40
2733000: system.cpu.l1d.prefetcher: Spatial Region offset:       0X1D
2733000: system.cpu.l1d.prefetcher: PST address added: 0X22638181D
2820000: system.cpu.l1i.prefetcher: PC:   0X44C640
2820000: system.cpu.l1i.prefetcher: Spatial Region address:       0X98
2820000: system.cpu.l1i.prefetcher: Spatial Region physical address:    0X4C640
2820000: system.cpu.l1i.prefetcher: Spatial Region offset:       0X19
2820000: system.cpu.l1i.prefetcher: PST address added: 0X226320019
2994000: system.cpu.l1d.prefetcher: PC:   0X44C6EB
2994000: system.cpu.l1d.prefetcher: Spatial Region address:      0X189
2994000: system.cpu.l1d.prefetcher: Spatial Region physical address:    0XC4F80
2994000: system.cpu.l1d.prefetcher: Spatial Region offset:       0X1E
2994000: system.cpu.l1d.prefetcher: PST address added: 0X22637581E
3083000: system.cpu.l1i.prefetcher: PC:   0X44C880
3083000: system.cpu.l1i.prefetcher: Spatial Region address:       0X99
3083000: system.cpu.l1i.prefetcher: Spatial Region physical address:    0X4C880
3083000: system.cpu.l1i.prefetcher: Spatial Region offset:        0X2
3285000: system.cpu.l1i.prefetcher: PC:   0X402240
3285000: system.cpu.l1i.prefetcher: Spatial Region address:        0X4
3285000: system.cpu.l1i.prefetcher: Spatial Region physical address:     0X2240
3285000: system.cpu.l1i.prefetcher: Spatial Region offset:        0X9
3285000: system.cpu.l1i.prefetcher: PST address added: 0X201120009
3376000: system.cpu.l1i.prefetcher: PC:   0X44D550
3376000: system.cpu.l1i.prefetcher: Spatial Region address:       0X9A
3376000: system.cpu.l1i.prefetcher: Spatial Region physical address:    0X4D540
3376000: system.cpu.l1i.prefetcher: Spatial Region offset:       0X15
3376000: system.cpu.l1i.prefetcher: PST address added: 0X226AA8015
3440000: system.cpu.l1i.prefetcher: PC:   0X44D580
3440000: system.cpu.l1i.prefetcher: Spatial Region address:       0X9A
3440000: system.cpu.l1i.prefetcher: Spatial Region physical address:    0X4D580
3440000: system.cpu.l1i.prefetcher: Spatial Region offset:       0X16
3440000: system.cpu.l1i.prefetcher: PST address added: 0X226AC0016
3517000: system.cpu.l1i.prefetcher: PC:   0X402280
3517000: system.cpu.l1i.prefetcher: Spatial Region address:        0X4
3517000: system.cpu.l1i.prefetcher: Spatial Region physical address:     0X2280
3517000: system.cpu.l1i.prefetcher: Spatial Region offset:        0XA
3517000: system.cpu.l1i.prefetcher: PST address added: 0X20114000A
3581000: system.cpu.l1i.prefetcher: PC:   0X44BDF0
3581000: system.cpu.l1i.prefetcher: Spatial Region address:       0X97
3581000: system.cpu.l1i.prefetcher: Spatial Region physical address:    0X4BDC0
3581000: system.cpu.l1i.prefetcher: Spatial Region offset:       0X17
3581000: system.cpu.l1i.prefetcher: PST address added: 0X225EF8017
3658000: system.cpu.l1i.prefetcher: PC:   0X44BE00
3658000: system.cpu.l1i.prefetcher: Spatial Region address:       0X97
3658000: system.cpu.l1i.prefetcher: Spatial Region physical address:    0X4BE00
3658000: system.cpu.l1i.prefetcher: Spatial Region offset:       0X18
3658000: system.cpu.l1i.prefetcher: PST address added: 0X225F00018
3722000: system.cpu.l1i.prefetcher: PC:   0X44BE40
3722000: system.cpu.l1i.prefetcher: Spatial Region address:       0X97
3722000: system.cpu.l1i.prefetcher: Spatial Region physical address:    0X4BE40
3722000: system.cpu.l1i.prefetcher: Spatial Region offset:       0X19
3786000: system.cpu.l1i.prefetcher: PC:   0X44BF3A
3786000: system.cpu.l1i.prefetcher: Spatial Region address:       0X97
3786000: system.cpu.l1i.prefetcher: Spatial Region physical address:    0X4BF00
3786000: system.cpu.l1i.prefetcher: Spatial Region offset:       0X1C
3850000: system.cpu.l1i.prefetcher: PC:   0X44BF40
3850000: system.cpu.l1i.prefetcher: Spatial Region address:       0X97
3850000: system.cpu.l1i.prefetcher: Spatial Region physical address:    0X4BF40
3850000: system.cpu.l1i.prefetcher: Spatial Region offset:       0X1D
3914000: system.cpu.l1i.prefetcher: PC:   0X44BF80
3914000: system.cpu.l1i.prefetcher: Spatial Region address:       0X97
3914000: system.cpu.l1i.prefetcher: Spatial Region physical address:    0X4BF80
3914000: system.cpu.l1i.prefetcher: Spatial Region offset:       0X1E
3986000: system.cpu.l1d.prefetcher: PC:   0X4021C5
3986000: system.cpu.l1d.prefetcher: Spatial Region address:      0X189
3986000: system.cpu.l1d.prefetcher: Spatial Region physical address:    0XC4D4C
3986000: system.cpu.l1d.prefetcher: Spatial Region offset:       0X15
3986000: system.cpu.l1d.prefetcher: PST address added: 0X2010E2815
4001000: system.cpu.l1d.prefetcher: PC:   0X4021CF
4001000: system.cpu.l1d.prefetcher: Spatial Region address:      0X189
4001000: system.cpu.l1d.prefetcher: Spatial Region physical address:    0XC4D50
4001000: system.cpu.l1d.prefetcher: Spatial Region offset:       0X15
4001000: system.cpu.l1d.prefetcher: PST address added: 0X2010E7815
4013000: system.cpu.l1i.prefetcher: PC:   0X40235D
4013000: system.cpu.l1i.prefetcher: Spatial Region address:        0X4
4013000: system.cpu.l1i.prefetcher: Spatial Region physical address:     0X2340
4013000: system.cpu.l1i.prefetcher: Spatial Region offset:        0XD
4013000: system.cpu.l1i.prefetcher: PST address added: 0X2011AE80D
4049000: system.cpu.l1d.prefetcher: PC:   0X4021DF
4049000: system.cpu.l1d.prefetcher: Spatial Region address:      0X185
4049000: system.cpu.l1d.prefetcher: Spatial Region physical address:    0XC2D8C
4049000: system.cpu.l1d.prefetcher: Spatial Region offset:       0X16
4049000: system.cpu.l1d.prefetcher: PST address added: 0X2010EF816
4077000: system.cpu.l1i.prefetcher: PC:   0X402380
4077000: system.cpu.l1i.prefetcher: Spatial Region address:        0X4
4077000: system.cpu.l1i.prefetcher: Spatial Region physical address:     0X2380
4077000: system.cpu.l1i.prefetcher: Spatial Region offset:        0XE
4077000: system.cpu.l1i.prefetcher: PST address added: 0X2011C000E
4186000: system.cpu.l1i.prefetcher: PC:   0X4028B3
4186000: system.cpu.l1i.prefetcher: Spatial Region address:        0X5
4186000: system.cpu.l1i.prefetcher: Spatial Region physical address:     0X2880
4186000: system.cpu.l1i.prefetcher: Spatial Region offset:        0X2
4186000: system.cpu.l1i.prefetcher: PST address added: 0X201459802
4250000: system.cpu.l1i.prefetcher: PC:   0X4028C0
4250000: system.cpu.l1i.prefetcher: Spatial Region address:        0X5
4250000: system.cpu.l1i.prefetcher: Spatial Region physical address:     0X28C0
4250000: system.cpu.l1i.prefetcher: Spatial Region offset:        0X3
4250000: system.cpu.l1i.prefetcher: PST address added: 0X201460003
4314000: system.cpu.l1i.prefetcher: PC:   0X402900
4314000: system.cpu.l1i.prefetcher: Spatial Region address:        0X5
4314000: system.cpu.l1i.prefetcher: Spatial Region physical address:     0X2900
4314000: system.cpu.l1i.prefetcher: Spatial Region offset:        0X4
4314000: system.cpu.l1i.prefetcher: PST address added: 0X201480004
4389000: system.cpu.l1i.prefetcher: PC:   0X4022C0
4389000: system.cpu.l1i.prefetcher: Spatial Region address:        0X4
4389000: system.cpu.l1i.prefetcher: Spatial Region physical address:     0X22C0
4389000: system.cpu.l1i.prefetcher: Spatial Region offset:        0XB
4389000: system.cpu.l1i.prefetcher: PST address added: 0X20116000B
4453000: system.cpu.l1i.prefetcher: PC:   0X401D70
4453000: system.cpu.l1i.prefetcher: Spatial Region address:        0X3
4453000: system.cpu.l1i.prefetcher: Spatial Region physical address:     0X1D40
4453000: system.cpu.l1i.prefetcher: Spatial Region offset:       0X15
4544000: system.cpu.l1i.prefetcher: PC:   0X401D80
4544000: system.cpu.l1i.prefetcher: Spatial Region address:        0X3
4544000: system.cpu.l1i.prefetcher: Spatial Region physical address:     0X1D80
4544000: system.cpu.l1i.prefetcher: Spatial Region offset:       0X16
4608000: system.cpu.l1i.prefetcher: PC:   0X401DD5
4608000: system.cpu.l1i.prefetcher: Spatial Region address:        0X3
4608000: system.cpu.l1i.prefetcher: Spatial Region physical address:     0X1DC0
4608000: system.cpu.l1i.prefetcher: Spatial Region offset:       0X17
4672000: system.cpu.l1i.prefetcher: PC:   0X401E00
4672000: system.cpu.l1i.prefetcher: Spatial Region address:        0X3
4672000: system.cpu.l1i.prefetcher: Spatial Region physical address:     0X1E00
4672000: system.cpu.l1i.prefetcher: Spatial Region offset:       0X18
4740000: system.cpu.l1i.prefetcher: PC:   0X401E40
4740000: system.cpu.l1i.prefetcher: Spatial Region address:        0X3
4740000: system.cpu.l1i.prefetcher: Spatial Region physical address:     0X1E40
4740000: system.cpu.l1i.prefetcher: Spatial Region offset:       0X19
4808000: system.cpu.l1i.prefetcher: PC:   0X401E80
4808000: system.cpu.l1i.prefetcher: Spatial Region address:        0X3
4808000: system.cpu.l1i.prefetcher: Spatial Region physical address:     0X1E80
4808000: system.cpu.l1i.prefetcher: Spatial Region offset:       0X1A
4872000: system.cpu.l1i.prefetcher: PC:   0X401F34
4872000: system.cpu.l1i.prefetcher: Spatial Region address:        0X3
4872000: system.cpu.l1i.prefetcher: Spatial Region physical address:     0X1F00
4872000: system.cpu.l1i.prefetcher: Spatial Region offset:       0X1C
4872000: system.cpu.l1i.prefetcher: PST address added: 0X200F9A01C
4936000: system.cpu.l1i.prefetcher: PC:   0X401F40
4936000: system.cpu.l1i.prefetcher: Spatial Region address:        0X3
4936000: system.cpu.l1i.prefetcher: Spatial Region physical address:     0X1F40
4936000: system.cpu.l1i.prefetcher: Spatial Region offset:       0X1D
4936000: system.cpu.l1i.prefetcher: PST address added: 0X200FA001D
5037000: system.cpu.l1i.prefetcher: PC:   0X402300
5037000: system.cpu.l1i.prefetcher: Spatial Region address:        0X4
5037000: system.cpu.l1i.prefetcher: Spatial Region physical address:     0X2300
5037000: system.cpu.l1i.prefetcher: Spatial Region offset:        0XC
5037000: system.cpu.l1i.prefetcher: PST address added: 0X20118000C
5101000: system.cpu.l1i.prefetcher: PC:   0X44C380
5101000: system.cpu.l1i.prefetcher: Spatial Region address:       0X98
5101000: system.cpu.l1i.prefetcher: Spatial Region physical address:    0X4C380
5101000: system.cpu.l1i.prefetcher: Spatial Region offset:        0XE
5101000: system.cpu.l1i.prefetcher: PST address added: 0X2261C000E
5173000: system.cpu.l1d.prefetcher: PC:   0X44C39C
5173000: system.cpu.l1d.prefetcher: Spatial Region address:      0X17C
5173000: system.cpu.l1d.prefetcher: Spatial Region physical address:    0XBE7A8
5173000: system.cpu.l1d.prefetcher: Spatial Region offset:       0X1E
5173000: system.cpu.l1d.prefetcher: PST address added: 0X2261CE01E
5236000: system.cpu.l1d.prefetcher: PC:   0X44C3A0
5236000: system.cpu.l1d.prefetcher: Spatial Region address:      0X17C
5236000: system.cpu.l1d.prefetcher: Spatial Region physical address:    0XBE7C0
5236000: system.cpu.l1d.prefetcher: Spatial Region offset:       0X1F
5236000: system.cpu.l1d.prefetcher: PST address added: 0X2261D001F
5364000: system.cpu.l1d.prefetcher: PC:   0X44C39C
5364000: system.cpu.l1d.prefetcher: Spatial Region address:      0X17C
5364000: system.cpu.l1d.prefetcher: Spatial Region physical address:    0XBE620
5364000: system.cpu.l1d.prefetcher: Spatial Region offset:       0X18
5364000: system.cpu.l1d.prefetcher: PST address added: 0X2261CE018
5454000: system.cpu.l1d.prefetcher: PC:   0X44C3BC
5454000: system.cpu.l1d.prefetcher: Spatial Region address:      0X17C
5454000: system.cpu.l1d.prefetcher: Spatial Region physical address:    0XBE640
5454000: system.cpu.l1d.prefetcher: Spatial Region offset:       0X19
5454000: system.cpu.l1d.prefetcher: PST address added: 0X2261DE019
5541000: system.cpu.l1d.prefetcher: PC:   0X402295
5541000: system.cpu.l1d.prefetcher: Spatial Region address:      0X185
5541000: system.cpu.l1d.prefetcher: Spatial Region physical address:    0XC2DC0
5541000: system.cpu.l1d.prefetcher: Spatial Region offset:       0X17
5541000: system.cpu.l1d.prefetcher: PST address added: 0X20114A817
5559000: system.cpu.l1d.prefetcher: PC:   0X44C39C
5559000: system.cpu.l1d.prefetcher: Spatial Region address:      0X17D
5559000: system.cpu.l1d.prefetcher: Spatial Region physical address:    0XBE888
5559000: system.cpu.l1d.prefetcher: Spatial Region offset:        0X2
5559000: system.cpu.l1d.prefetcher: PST address added: 0X2261CE002
5709000: system.cpu.l1d.prefetcher: PC:   0X44C39C
5709000: system.cpu.l1d.prefetcher: Spatial Region address:      0X17C
5709000: system.cpu.l1d.prefetcher: Spatial Region physical address:    0XBE4D0
5709000: system.cpu.l1d.prefetcher: Spatial Region offset:       0X13
5709000: system.cpu.l1d.prefetcher: PST address added: 0X2261CE013
5857000: system.cpu.l1d.prefetcher: PC:   0X44C39C
5857000: system.cpu.l1d.prefetcher: Spatial Region address:      0X17C
5857000: system.cpu.l1d.prefetcher: Spatial Region physical address:    0XBE770
5857000: system.cpu.l1d.prefetcher: Spatial Region offset:       0X1D
5857000: system.cpu.l1d.prefetcher: PST address added: 0X2261CE01D
5933000: system.cpu.l1d.prefetcher: PC:   0X44C3E8
5933000: system.cpu.l1d.prefetcher: Spatial Region address:      0X189
5933000: system.cpu.l1d.prefetcher: Spatial Region physical address:    0XC4D80
5933000: system.cpu.l1d.prefetcher: Spatial Region offset:       0X16
5933000: system.cpu.l1d.prefetcher: PST address added: 0X2261F4016
5975000: system.cpu.l1i.prefetcher: PC:   0X4023C0
5975000: system.cpu.l1i.prefetcher: Spatial Region address:        0X4
5975000: system.cpu.l1i.prefetcher: Spatial Region physical address:     0X23C0
5975000: system.cpu.l1i.prefetcher: Spatial Region offset:        0XF
5975000: system.cpu.l1i.prefetcher: PST address added: 0X2011E000F
6142000: system.cpu.l1d.prefetcher: PC:   0X402331
6142000: system.cpu.l1d.prefetcher: Spatial Region address:          0
6142000: system.cpu.l1d.prefetcher: Spatial Region physical address:      0X2E8
6142000: system.cpu.l1d.prefetcher: Spatial Region offset:        0XB
6142000: system.cpu.l1d.prefetcher: PST address added: 0X20119880B
6211000: system.cpu.l1i.prefetcher: PC:   0X402400
6211000: system.cpu.l1i.prefetcher: Spatial Region address:        0X4
6211000: system.cpu.l1i.prefetcher: Spatial Region physical address:     0X2400
6211000: system.cpu.l1i.prefetcher: Spatial Region offset:       0X10
6211000: system.cpu.l1i.prefetcher: PST address added: 0X201200010
6286000: system.cpu.l1i.prefetcher: PC:   0X421960
6286000: system.cpu.l1i.prefetcher: Spatial Region address:       0X43
6286000: system.cpu.l1i.prefetcher: Spatial Region physical address:    0X21940
6286000: system.cpu.l1i.prefetcher: Spatial Region offset:        0X5
6286000: system.cpu.l1i.prefetcher: PST address added: 0X210CB0005
6377000: system.cpu.l1i.prefetcher: PC:   0X421980
6377000: system.cpu.l1i.prefetcher: Spatial Region address:       0X43
6377000: system.cpu.l1i.prefetcher: Spatial Region physical address:    0X21980
6377000: system.cpu.l1i.prefetcher: Spatial Region offset:        0X6
6377000: system.cpu.l1i.prefetcher: PST address added: 0X210CC0006
6441000: system.cpu.l1i.prefetcher: PC:   0X4219C0
6441000: system.cpu.l1i.prefetcher: Spatial Region address:       0X43
6441000: system.cpu.l1i.prefetcher: Spatial Region physical address:    0X219C0
6441000: system.cpu.l1i.prefetcher: Spatial Region offset:        0X7
6441000: system.cpu.l1i.prefetcher: PST address added: 0X210CE0007
6514000: system.cpu.l1d.prefetcher: PC:   0X402338
6514000: system.cpu.l1d.prefetcher: Spatial Region address:      0X17E
6514000: system.cpu.l1d.prefetcher: Spatial Region physical address:    0XBF0D0
6514000: system.cpu.l1d.prefetcher: Spatial Region offset:        0X3
6514000: system.cpu.l1d.prefetcher: PST address added: 0X20119C003
6526000: system.cpu.l1d.prefetcher: PC:   0X402331
6526000: system.cpu.l1d.prefetcher: Spatial Region address:          0
6526000: system.cpu.l1d.prefetcher: Spatial Region physical address:      0X300
6526000: system.cpu.l1d.prefetcher: Spatial Region offset:        0XC
6526000: system.cpu.l1d.prefetcher: PST address added: 0X20119880C
6618000: system.cpu.l1i.prefetcher: PC:   0X421AD0
6618000: system.cpu.l1i.prefetcher: Spatial Region address:       0X43
6618000: system.cpu.l1i.prefetcher: Spatial Region physical address:    0X21AC0
6618000: system.cpu.l1i.prefetcher: Spatial Region offset:        0XB
6618000: system.cpu.l1i.prefetcher: PST address added: 0X210D6800B
6709000: system.cpu.l1i.prefetcher: PC:   0X421B00
6709000: system.cpu.l1i.prefetcher: Spatial Region address:       0X43
6709000: system.cpu.l1i.prefetcher: Spatial Region physical address:    0X21B00
6709000: system.cpu.l1i.prefetcher: Spatial Region offset:        0XC
6709000: system.cpu.l1i.prefetcher: PST address added: 0X210D8000C
6773000: system.cpu.l1i.prefetcher: PC:   0X421B40
6773000: system.cpu.l1i.prefetcher: Spatial Region address:       0X43
6773000: system.cpu.l1i.prefetcher: Spatial Region physical address:    0X21B40
6773000: system.cpu.l1i.prefetcher: Spatial Region offset:        0XD
6773000: system.cpu.l1i.prefetcher: PST address added: 0X210DA000D
6864000: system.cpu.l1i.prefetcher: PC:   0X484A60
6864000: system.cpu.l1i.prefetcher: Spatial Region address:      0X109
6864000: system.cpu.l1i.prefetcher: Spatial Region physical address:    0X84A40
6864000: system.cpu.l1i.prefetcher: Spatial Region offset:        0X9
6864000: system.cpu.l1i.prefetcher: PST address added: 0X242530009
6955000: system.cpu.l1i.prefetcher: PC:   0X484A80
6955000: system.cpu.l1i.prefetcher: Spatial Region address:      0X109
6955000: system.cpu.l1i.prefetcher: Spatial Region physical address:    0X84A80
6955000: system.cpu.l1i.prefetcher: Spatial Region offset:        0XA
6955000: system.cpu.l1i.prefetcher: PST address added: 0X24254000A
7046000: system.cpu.l1i.prefetcher: PC:   0X421A70
7046000: system.cpu.l1i.prefetcher: Spatial Region address:       0X43
7046000: system.cpu.l1i.prefetcher: Spatial Region physical address:    0X21A40
7046000: system.cpu.l1i.prefetcher: Spatial Region offset:        0X9
7046000: system.cpu.l1i.prefetcher: PST address added: 0X210D38009
7110000: system.cpu.l1i.prefetcher: PC:   0X421A80
7110000: system.cpu.l1i.prefetcher: Spatial Region address:       0X43
7110000: system.cpu.l1i.prefetcher: Spatial Region physical address:    0X21A80
7110000: system.cpu.l1i.prefetcher: Spatial Region offset:        0XA
7110000: system.cpu.l1i.prefetcher: PST address added: 0X210D4000A
7197000: system.cpu.l1d.prefetcher: PC:   0X402338
7197000: system.cpu.l1d.prefetcher: Spatial Region address:      0X17E
7197000: system.cpu.l1d.prefetcher: Spatial Region physical address:    0XBF0B8
7197000: system.cpu.l1d.prefetcher: Spatial Region offset:        0X2
7197000: system.cpu.l1d.prefetcher: PST address added: 0X20119C002
7198000: system.cpu.l1d.prefetcher: PC:   0X402348
7198000: system.cpu.l1d.prefetcher: Spatial Region address:          0
7198000: system.cpu.l1d.prefetcher: Spatial Region physical address:      0X340
7198000: system.cpu.l1d.prefetcher: Spatial Region offset:        0XD
7198000: system.cpu.l1d.prefetcher: PST address added: 0X2011A400D
7304000: system.cpu.l1i.prefetcher: PC:   0X422540
7304000: system.cpu.l1i.prefetcher: Spatial Region address:       0X44
7304000: system.cpu.l1i.prefetcher: Spatial Region physical address:    0X22540
7304000: system.cpu.l1i.prefetcher: Spatial Region offset:       0X15
7304000: system.cpu.l1i.prefetcher: PST address added: 0X2112A0015
7395000: system.cpu.l1i.prefetcher: PC:   0X422580
7395000: system.cpu.l1i.prefetcher: Spatial Region address:       0X44
7395000: system.cpu.l1i.prefetcher: Spatial Region physical address:    0X22580
7395000: system.cpu.l1i.prefetcher: Spatial Region offset:       0X16
7395000: system.cpu.l1i.prefetcher: PST address added: 0X2112C0016
7461000: system.cpu.l1i.prefetcher: PC:   0X4225C0
7461000: system.cpu.l1i.prefetcher: Spatial Region address:       0X44
7461000: system.cpu.l1i.prefetcher: Spatial Region physical address:    0X225C0
7461000: system.cpu.l1i.prefetcher: Spatial Region offset:       0X17
7461000: system.cpu.l1i.prefetcher: PST address added: 0X2112E0017
7527000: system.cpu.l1i.prefetcher: PC:   0X422600
7527000: system.cpu.l1i.prefetcher: Spatial Region address:       0X44
7527000: system.cpu.l1i.prefetcher: Spatial Region physical address:    0X22600
7527000: system.cpu.l1i.prefetcher: Spatial Region offset:       0X18
7527000: system.cpu.l1i.prefetcher: PST address added: 0X211300018
7618000: system.cpu.l1i.prefetcher: PC:   0X484D00
7618000: system.cpu.l1i.prefetcher: Spatial Region address:      0X109
7618000: system.cpu.l1i.prefetcher: Spatial Region physical address:    0X84D00
7618000: system.cpu.l1i.prefetcher: Spatial Region offset:       0X14
7618000: system.cpu.l1i.prefetcher: PST address added: 0X242680014
7682000: system.cpu.l1i.prefetcher: PC:   0X484D40
7682000: system.cpu.l1i.prefetcher: Spatial Region address:      0X109
7682000: system.cpu.l1i.prefetcher: Spatial Region physical address:    0X84D40
7682000: system.cpu.l1i.prefetcher: Spatial Region offset:       0X15
7682000: system.cpu.l1i.prefetcher: PST address added: 0X2426A0015
7748000: system.cpu.l1i.prefetcher: PC:   0X484D80
7748000: system.cpu.l1i.prefetcher: Spatial Region address:      0X109
7748000: system.cpu.l1i.prefetcher: Spatial Region physical address:    0X84D80
7748000: system.cpu.l1i.prefetcher: Spatial Region offset:       0X16
7748000: system.cpu.l1i.prefetcher: PST address added: 0X2426C0016
7843000: system.cpu.l1i.prefetcher: PC:   0X421A00
7843000: system.cpu.l1i.prefetcher: Spatial Region address:       0X43
7843000: system.cpu.l1i.prefetcher: Spatial Region physical address:    0X21A00
7843000: system.cpu.l1i.prefetcher: Spatial Region offset:        0X8
7843000: system.cpu.l1i.prefetcher: PST address added: 0X210D00008
8145000: system.cpu.l1d.prefetcher: PC:   0X402348
8145000: system.cpu.l1d.prefetcher: Spatial Region address:          0
8145000: system.cpu.l1d.prefetcher: Spatial Region physical address:      0X388
8145000: system.cpu.l1d.prefetcher: Spatial Region offset:        0XE
8145000: system.cpu.l1d.prefetcher: PST address added: 0X2011A400E
8146000: system.cpu.l1d.prefetcher: PC:   0X40234C
8146000: system.cpu.l1d.prefetcher: Spatial Region address:          0
8146000: system.cpu.l1d.prefetcher: Spatial Region physical address:      0X380
8146000: system.cpu.l1d.prefetcher: Spatial Region offset:        0XE
8146000: system.cpu.l1d.prefetcher: PST address added: 0X2011A600E
8251000: system.cpu.l1i.prefetcher: PC:   0X470120
8251000: system.cpu.l1i.prefetcher: Spatial Region address:       0XE0
8251000: system.cpu.l1i.prefetcher: Spatial Region physical address:    0X70100
8251000: system.cpu.l1i.prefetcher: Spatial Region offset:        0X4
8251000: system.cpu.l1i.prefetcher: PST address added: 0X238090004
8328000: system.cpu.l1i.prefetcher: PC:   0X470140
8328000: system.cpu.l1i.prefetcher: Spatial Region address:       0XE0
8328000: system.cpu.l1i.prefetcher: Spatial Region physical address:    0X70140
8328000: system.cpu.l1i.prefetcher: Spatial Region offset:        0X5
8328000: system.cpu.l1i.prefetcher: PST address added: 0X2380A0005
8392000: system.cpu.l1i.prefetcher: PC:   0X470180
8392000: system.cpu.l1i.prefetcher: Spatial Region address:       0XE0
8392000: system.cpu.l1i.prefetcher: Spatial Region physical address:    0X70180
8392000: system.cpu.l1i.prefetcher: Spatial Region offset:        0X6
8392000: system.cpu.l1i.prefetcher: PST address added: 0X2380C0006
8483000: system.cpu.l1i.prefetcher: PC:   0X4224A0
8483000: system.cpu.l1i.prefetcher: Spatial Region address:       0X44
8483000: system.cpu.l1i.prefetcher: Spatial Region physical address:    0X22480
8483000: system.cpu.l1i.prefetcher: Spatial Region offset:       0X12
8483000: system.cpu.l1i.prefetcher: PST address added: 0X211250012
8560000: system.cpu.l1i.prefetcher: PC:   0X4224C0
8560000: system.cpu.l1i.prefetcher: Spatial Region address:       0X44
8560000: system.cpu.l1i.prefetcher: Spatial Region physical address:    0X224C0
8560000: system.cpu.l1i.prefetcher: Spatial Region offset:       0X13
8560000: system.cpu.l1i.prefetcher: PST address added: 0X211260013
8624000: system.cpu.l1i.prefetcher: PC:   0X422500
8624000: system.cpu.l1i.prefetcher: Spatial Region address:       0X44
8624000: system.cpu.l1i.prefetcher: Spatial Region physical address:    0X22500
8624000: system.cpu.l1i.prefetcher: Spatial Region offset:       0X14
8624000: system.cpu.l1i.prefetcher: PST address added: 0X211280014
8726000: system.cpu.l1d.prefetcher: PC:   0X402331
8726000: system.cpu.l1d.prefetcher: Spatial Region address:          0
8726000: system.cpu.l1d.prefetcher: Spatial Region physical address:      0X3C0
8726000: system.cpu.l1d.prefetcher: Spatial Region offset:        0XF
8726000: system.cpu.l1d.prefetcher: PST address added: 0X20119880F
8791000: system.cpu.l1i.prefetcher: PC:   0X484CC0
8791000: system.cpu.l1i.prefetcher: Spatial Region address:      0X109
8791000: system.cpu.l1i.prefetcher: Spatial Region physical address:    0X84CC0
8791000: system.cpu.l1i.prefetcher: Spatial Region offset:       0X13
8791000: system.cpu.l1i.prefetcher: PST address added: 0X242660013
8881000: system.cpu.l1i.prefetcher: PC:   0X484DC0
8881000: system.cpu.l1i.prefetcher: Spatial Region address:      0X109
8881000: system.cpu.l1i.prefetcher: Spatial Region physical address:    0X84DC0
8881000: system.cpu.l1i.prefetcher: Spatial Region offset:       0X17
8881000: system.cpu.l1i.prefetcher: PST address added: 0X2426E0017
8972000: system.cpu.l1i.prefetcher: PC:   0X422660
8972000: system.cpu.l1i.prefetcher: Spatial Region address:       0X44
8972000: system.cpu.l1i.prefetcher: Spatial Region physical address:    0X22640
8972000: system.cpu.l1i.prefetcher: Spatial Region offset:       0X19
8972000: system.cpu.l1i.prefetcher: PST address added: 0X211330019
9036000: system.cpu.l1i.prefetcher: PC:   0X422680
9036000: system.cpu.l1i.prefetcher: Spatial Region address:       0X44
9036000: system.cpu.l1i.prefetcher: Spatial Region physical address:    0X22680
9036000: system.cpu.l1i.prefetcher: Spatial Region offset:       0X1A
9036000: system.cpu.l1i.prefetcher: PST address added: 0X21134001A
9100000: system.cpu.l1i.prefetcher: PC:   0X4226C0
9100000: system.cpu.l1i.prefetcher: Spatial Region address:       0X44
9100000: system.cpu.l1i.prefetcher: Spatial Region physical address:    0X226C0
9100000: system.cpu.l1i.prefetcher: Spatial Region offset:       0X1B
9100000: system.cpu.l1i.prefetcher: PST address added: 0X21136001B
9168000: system.cpu.l1i.prefetcher: PC:   0X422700
9168000: system.cpu.l1i.prefetcher: Spatial Region address:       0X44
9168000: system.cpu.l1i.prefetcher: Spatial Region physical address:    0X22700
9168000: system.cpu.l1i.prefetcher: Spatial Region offset:       0X1C
9168000: system.cpu.l1i.prefetcher: PST address added: 0X21138001C
9259000: system.cpu.l1i.prefetcher: PC:   0X422370
9259000: system.cpu.l1i.prefetcher: Spatial Region address:       0X44
9259000: system.cpu.l1i.prefetcher: Spatial Region physical address:    0X22340
9259000: system.cpu.l1i.prefetcher: Spatial Region offset:        0XD
9259000: system.cpu.l1i.prefetcher: PST address added: 0X2111B800D
9323000: system.cpu.l1i.prefetcher: PC:   0X422380
9323000: system.cpu.l1i.prefetcher: Spatial Region address:       0X44
9323000: system.cpu.l1i.prefetcher: Spatial Region physical address:    0X22380
9323000: system.cpu.l1i.prefetcher: Spatial Region offset:        0XE
9387000: system.cpu.l1i.prefetcher: PC:   0X4223C0
9387000: system.cpu.l1i.prefetcher: Spatial Region address:       0X44
9387000: system.cpu.l1i.prefetcher: Spatial Region physical address:    0X223C0
9387000: system.cpu.l1i.prefetcher: Spatial Region offset:        0XF
9460000: system.cpu.l1d.prefetcher: PC:   0X402338
9460000: system.cpu.l1d.prefetcher: Spatial Region address:      0X17E
9460000: system.cpu.l1d.prefetcher: Spatial Region physical address:    0XBF078
9460000: system.cpu.l1d.prefetcher: Spatial Region offset:        0X1
9460000: system.cpu.l1d.prefetcher: PST address added: 0X20119C001
9461000: system.cpu.l1d.prefetcher: PC:   0X402348
9461000: system.cpu.l1d.prefetcher: Spatial Region address:          0
9461000: system.cpu.l1d.prefetcher: Spatial Region physical address:      0X400
9461000: system.cpu.l1d.prefetcher: Spatial Region offset:       0X10
9461000: system.cpu.l1d.prefetcher: PST address added: 0X2011A4010
9562000: system.cpu.l1i.prefetcher: PC:   0X421B80
9562000: system.cpu.l1i.prefetcher: Spatial Region address:       0X43
9562000: system.cpu.l1i.prefetcher: Spatial Region physical address:    0X21B80
9562000: system.cpu.l1i.prefetcher: Spatial Region offset:        0XE
9562000: system.cpu.l1i.prefetcher: PST address added: 0X210DC000E
9658000: system.cpu.l1i.prefetcher: PC:   0X421BC0
9658000: system.cpu.l1i.prefetcher: Spatial Region address:       0X43
9658000: system.cpu.l1i.prefetcher: Spatial Region physical address:    0X21BC0
9658000: system.cpu.l1i.prefetcher: Spatial Region offset:        0XF
9658000: system.cpu.l1i.prefetcher: PST address added: 0X210DE000F
9760000: system.cpu.l1i.prefetcher: PC:   0X422400
9760000: system.cpu.l1i.prefetcher: Spatial Region address:       0X44
9760000: system.cpu.l1i.prefetcher: Spatial Region physical address:    0X22400
9760000: system.cpu.l1i.prefetcher: Spatial Region offset:       0X10
9851000: system.cpu.l1i.prefetcher: PC:   0X46E1C0
9851000: system.cpu.l1i.prefetcher: Spatial Region address:       0XDC
9851000: system.cpu.l1i.prefetcher: Spatial Region physical address:    0X6E1C0
9851000: system.cpu.l1i.prefetcher: Spatial Region offset:        0X7
9851000: system.cpu.l1i.prefetcher: PST address added: 0X2370E0007
9928000: system.cpu.l1i.prefetcher: PC:   0X46E200
9928000: system.cpu.l1i.prefetcher: Spatial Region address:       0XDC
9928000: system.cpu.l1i.prefetcher: Spatial Region physical address:    0X6E200
9928000: system.cpu.l1i.prefetcher: Spatial Region offset:        0X8
9928000: system.cpu.l1i.prefetcher: PST address added: 0X237100008
10002000: system.cpu.l1d.prefetcher: PC:   0X402348
10002000: system.cpu.l1d.prefetcher: Spatial Region address:          0
10002000: system.cpu.l1d.prefetcher: Spatial Region physical address:      0X448
10002000: system.cpu.l1d.prefetcher: Spatial Region offset:       0X11
10002000: system.cpu.l1d.prefetcher: PST address added: 0X2011A4011
10003000: system.cpu.l1d.prefetcher: PC:   0X40234C
10003000: system.cpu.l1d.prefetcher: Spatial Region address:          0
10003000: system.cpu.l1d.prefetcher: Spatial Region physical address:      0X440
10003000: system.cpu.l1d.prefetcher: Spatial Region offset:       0X11
10003000: system.cpu.l1d.prefetcher: PST address added: 0X2011A6011
10107000: system.cpu.l1i.prefetcher: PC:   0X4227B0
10107000: system.cpu.l1i.prefetcher: Spatial Region address:       0X44
10107000: system.cpu.l1i.prefetcher: Spatial Region physical address:    0X22780
10107000: system.cpu.l1i.prefetcher: Spatial Region offset:       0X1E
10107000: system.cpu.l1i.prefetcher: PST address added: 0X2113D801E
10171000: system.cpu.l1i.prefetcher: PC:   0X4227C0
10171000: system.cpu.l1i.prefetcher: Spatial Region address:       0X44
10171000: system.cpu.l1i.prefetcher: Spatial Region physical address:    0X227C0
10171000: system.cpu.l1i.prefetcher: Spatial Region offset:       0X1F
10171000: system.cpu.l1i.prefetcher: PST address added: 0X2113E001F
10235000: system.cpu.l1i.prefetcher: PC:   0X422800
10235000: system.cpu.l1i.prefetcher: Spatial Region address:       0X45
10235000: system.cpu.l1i.prefetcher: Spatial Region physical address:    0X22800
10235000: system.cpu.l1i.prefetcher: Spatial Region offset:          0
10235000: system.cpu.l1i.prefetcher: PST address added: 0X211400000
10383000: system.cpu.l1d.prefetcher: PC:   0X402331
10383000: system.cpu.l1d.prefetcher: Spatial Region address:          0
10383000: system.cpu.l1d.prefetcher: Spatial Region physical address:      0X480
10383000: system.cpu.l1d.prefetcher: Spatial Region offset:       0X12
10383000: system.cpu.l1d.prefetcher: PST address added: 0X201198812
10448000: system.cpu.l1i.prefetcher: PC:   0X46E100
10448000: system.cpu.l1i.prefetcher: Spatial Region address:       0XDC
10448000: system.cpu.l1i.prefetcher: Spatial Region physical address:    0X6E100
10448000: system.cpu.l1i.prefetcher: Spatial Region offset:        0X4
10448000: system.cpu.l1i.prefetcher: PST address added: 0X237080004
10512000: system.cpu.l1i.prefetcher: PC:   0X46E140
10512000: system.cpu.l1i.prefetcher: Spatial Region address:       0XDC
10512000: system.cpu.l1i.prefetcher: Spatial Region physical address:    0X6E140
10512000: system.cpu.l1i.prefetcher: Spatial Region offset:        0X5
10603000: system.cpu.l1i.prefetcher: PC:   0X46FA10
10603000: system.cpu.l1i.prefetcher: Spatial Region address:       0XDF
10603000: system.cpu.l1i.prefetcher: Spatial Region physical address:    0X6FA00
10603000: system.cpu.l1i.prefetcher: Spatial Region offset:        0X8
10603000: system.cpu.l1i.prefetcher: PST address added: 0X237D08008
10667000: system.cpu.l1i.prefetcher: PC:   0X46FA40
10667000: system.cpu.l1i.prefetcher: Spatial Region address:       0XDF
10667000: system.cpu.l1i.prefetcher: Spatial Region physical address:    0X6FA40
10667000: system.cpu.l1i.prefetcher: Spatial Region offset:        0X9
10667000: system.cpu.l1i.prefetcher: PST address added: 0X237D20009
10731000: system.cpu.l1i.prefetcher: PC:   0X46FA80
10731000: system.cpu.l1i.prefetcher: Spatial Region address:       0XDF
10731000: system.cpu.l1i.prefetcher: Spatial Region physical address:    0X6FA80
10731000: system.cpu.l1i.prefetcher: Spatial Region offset:        0XA
10731000: system.cpu.l1i.prefetcher: PST address added: 0X237D4000A
10830000: system.cpu.l1i.prefetcher: PC:   0X422740
10830000: system.cpu.l1i.prefetcher: Spatial Region address:       0X44
10830000: system.cpu.l1i.prefetcher: Spatial Region physical address:    0X22740
10830000: system.cpu.l1i.prefetcher: Spatial Region offset:       0X1D
10830000: system.cpu.l1i.prefetcher: PST address added: 0X2113A001D
10925000: system.cpu.l1i.prefetcher: PC:   0X422840
10925000: system.cpu.l1i.prefetcher: Spatial Region address:       0X45
10925000: system.cpu.l1i.prefetcher: Spatial Region physical address:    0X22840
10925000: system.cpu.l1i.prefetcher: Spatial Region offset:        0X1
10998000: system.cpu.l1d.prefetcher: PC:   0X402338
10998000: system.cpu.l1d.prefetcher: Spatial Region address:      0X17E
10998000: system.cpu.l1d.prefetcher: Spatial Region physical address:    0XBF038
10998000: system.cpu.l1d.prefetcher: Spatial Region offset:          0
10999000: system.cpu.l1d.prefetcher: PC:   0X402348
10999000: system.cpu.l1d.prefetcher: Spatial Region address:          0
10999000: system.cpu.l1d.prefetcher: Spatial Region physical address:      0X4C0
10999000: system.cpu.l1d.prefetcher: Spatial Region offset:       0X13
10999000: system.cpu.l1d.prefetcher: PST address added: 0X2011A4013
11138000: system.cpu.l1i.prefetcher: PC:   0X422440
11138000: system.cpu.l1i.prefetcher: Spatial Region address:       0X44
11138000: system.cpu.l1i.prefetcher: Spatial Region physical address:    0X22440
11138000: system.cpu.l1i.prefetcher: Spatial Region offset:       0X11
11138000: system.cpu.l1i.prefetcher: PST address added: 0X211220011
11280000: system.cpu.l1i.prefetcher: PC:   0X46E0C0
11280000: system.cpu.l1i.prefetcher: Spatial Region address:       0XDC
11280000: system.cpu.l1i.prefetcher: Spatial Region physical address:    0X6E0C0
11280000: system.cpu.l1i.prefetcher: Spatial Region offset:        0X3
11280000: system.cpu.l1i.prefetcher: PST address added: 0X237060003
11349000: system.cpu.l1i.prefetcher: PC:   0X46E180
11349000: system.cpu.l1i.prefetcher: Spatial Region address:       0XDC
11349000: system.cpu.l1i.prefetcher: Spatial Region physical address:    0X6E180
11349000: system.cpu.l1i.prefetcher: Spatial Region offset:        0X6
11423000: system.cpu.l1d.prefetcher: PC:   0X402348
11423000: system.cpu.l1d.prefetcher: Spatial Region address:          0
11423000: system.cpu.l1d.prefetcher: Spatial Region physical address:      0X508
11423000: system.cpu.l1d.prefetcher: Spatial Region offset:       0X14
11423000: system.cpu.l1d.prefetcher: PST address added: 0X2011A4014
11424000: system.cpu.l1d.prefetcher: PC:   0X40234C
11424000: system.cpu.l1d.prefetcher: Spatial Region address:          0
11424000: system.cpu.l1d.prefetcher: Spatial Region physical address:      0X500
11424000: system.cpu.l1d.prefetcher: Spatial Region offset:       0X14
11424000: system.cpu.l1d.prefetcher: PST address added: 0X2011A6014
11550000: system.cpu.l1i.prefetcher: PC:   0X40246B
11550000: system.cpu.l1i.prefetcher: Spatial Region address:        0X4
11550000: system.cpu.l1i.prefetcher: Spatial Region physical address:     0X2440
11550000: system.cpu.l1i.prefetcher: Spatial Region offset:       0X11
11550000: system.cpu.l1i.prefetcher: PST address added: 0X201235811
11641000: system.cpu.l1i.prefetcher: PC:   0X402480
11641000: system.cpu.l1i.prefetcher: Spatial Region address:        0X4
11641000: system.cpu.l1i.prefetcher: Spatial Region physical address:     0X2480
11641000: system.cpu.l1i.prefetcher: Spatial Region offset:       0X12
11705000: system.cpu.l1i.prefetcher: PC:   0X402AC0
11705000: system.cpu.l1i.prefetcher: Spatial Region address:        0X5
11705000: system.cpu.l1i.prefetcher: Spatial Region physical address:     0X2AC0
11705000: system.cpu.l1i.prefetcher: Spatial Region offset:        0XB
11705000: system.cpu.l1i.prefetcher: PST address added: 0X20156000B
11769000: system.cpu.l1i.prefetcher: PC:   0X402B00
11769000: system.cpu.l1i.prefetcher: Spatial Region address:        0X5
11769000: system.cpu.l1i.prefetcher: Spatial Region physical address:     0X2B00
11769000: system.cpu.l1i.prefetcher: Spatial Region offset:        0XC
11769000: system.cpu.l1i.prefetcher: PST address added: 0X20158000C
11794000: system.cpu.l1d.prefetcher: PC:   0X402AD9
11794000: system.cpu.l1d.prefetcher: Spatial Region address:      0X182
11794000: system.cpu.l1d.prefetcher: Spatial Region physical address:    0XC1180
11794000: system.cpu.l1d.prefetcher: Spatial Region offset:        0X6
11794000: system.cpu.l1d.prefetcher: PST address added: 0X20156C806
11833000: system.cpu.l1i.prefetcher: PC:   0X402B40
11833000: system.cpu.l1i.prefetcher: Spatial Region address:        0X5
11833000: system.cpu.l1i.prefetcher: Spatial Region physical address:     0X2B40
11833000: system.cpu.l1i.prefetcher: Spatial Region offset:        0XD
11833000: system.cpu.l1i.prefetcher: PST address added: 0X2015A000D
11900000: system.cpu.l1i.prefetcher: PC:   0X402B80
11900000: system.cpu.l1i.prefetcher: Spatial Region address:        0X5
11900000: system.cpu.l1i.prefetcher: Spatial Region physical address:     0X2B80
11900000: system.cpu.l1i.prefetcher: Spatial Region offset:        0XE
11900000: system.cpu.l1i.prefetcher: PST address added: 0X2015C000E
11901000: system.cpu.l1d.prefetcher: PC:   0X402B1D
11901000: system.cpu.l1d.prefetcher: Spatial Region address:          0
11901000: system.cpu.l1d.prefetcher: Spatial Region physical address:       0X40
11901000: system.cpu.l1d.prefetcher: Spatial Region offset:        0X1
11901000: system.cpu.l1d.prefetcher: PST address added: 0X20158E801
11964000: system.cpu.l1i.prefetcher: PC:   0X402BC0
11964000: system.cpu.l1i.prefetcher: Spatial Region address:        0X5
11964000: system.cpu.l1i.prefetcher: Spatial Region physical address:     0X2BC0
11964000: system.cpu.l1i.prefetcher: Spatial Region offset:        0XF
11964000: system.cpu.l1i.prefetcher: PST address added: 0X2015E000F
12040000: system.cpu.l1d.prefetcher: PC:   0X402B22
12040000: system.cpu.l1d.prefetcher: Spatial Region address:          0
12040000: system.cpu.l1d.prefetcher: Spatial Region physical address:       0XA8
12040000: system.cpu.l1d.prefetcher: Spatial Region offset:        0X2
12041000: system.cpu.l1d.prefetcher: PC:   0X402B26
12041000: system.cpu.l1d.prefetcher: Spatial Region address:          0
12041000: system.cpu.l1d.prefetcher: Spatial Region physical address:       0XA0
12041000: system.cpu.l1d.prefetcher: Spatial Region offset:        0X2
12041000: system.cpu.l1d.prefetcher: PST address added: 0X201593002
12111000: system.cpu.l1d.prefetcher: PC:   0X402B22
12111000: system.cpu.l1d.prefetcher: Spatial Region address:          0
12111000: system.cpu.l1d.prefetcher: Spatial Region physical address:       0XE0
12111000: system.cpu.l1d.prefetcher: Spatial Region offset:        0X3
12111000: system.cpu.l1d.prefetcher: PST address added: 0X201591003
12112000: system.cpu.l1d.prefetcher: PC:   0X402B26
12112000: system.cpu.l1d.prefetcher: Spatial Region address:          0
12112000: system.cpu.l1d.prefetcher: Spatial Region physical address:       0XD8
12112000: system.cpu.l1d.prefetcher: Spatial Region offset:        0X3
12112000: system.cpu.l1d.prefetcher: PST address added: 0X201593003
12182000: system.cpu.l1d.prefetcher: PC:   0X402B22
12182000: system.cpu.l1d.prefetcher: Spatial Region address:          0
12182000: system.cpu.l1d.prefetcher: Spatial Region physical address:      0X118
12182000: system.cpu.l1d.prefetcher: Spatial Region offset:        0X4
12182000: system.cpu.l1d.prefetcher: PST address added: 0X201591004
12183000: system.cpu.l1d.prefetcher: PC:   0X402B26
12183000: system.cpu.l1d.prefetcher: Spatial Region address:          0
12183000: system.cpu.l1d.prefetcher: Spatial Region physical address:      0X110
12183000: system.cpu.l1d.prefetcher: Spatial Region offset:        0X4
12183000: system.cpu.l1d.prefetcher: PST address added: 0X201593004
12253000: system.cpu.l1d.prefetcher: PC:   0X402B22
12253000: system.cpu.l1d.prefetcher: Spatial Region address:          0
12253000: system.cpu.l1d.prefetcher: Spatial Region physical address:      0X150
12253000: system.cpu.l1d.prefetcher: Spatial Region offset:        0X5
12253000: system.cpu.l1d.prefetcher: PST address added: 0X201591005
12254000: system.cpu.l1d.prefetcher: PC:   0X402B26
12254000: system.cpu.l1d.prefetcher: Spatial Region address:          0
12254000: system.cpu.l1d.prefetcher: Spatial Region physical address:      0X148
12254000: system.cpu.l1d.prefetcher: Spatial Region offset:        0X5
12254000: system.cpu.l1d.prefetcher: PST address added: 0X201593005
12324000: system.cpu.l1d.prefetcher: PC:   0X402B22
12324000: system.cpu.l1d.prefetcher: Spatial Region address:          0
12324000: system.cpu.l1d.prefetcher: Spatial Region physical address:      0X188
12324000: system.cpu.l1d.prefetcher: Spatial Region offset:        0X6
12324000: system.cpu.l1d.prefetcher: PST address added: 0X201591006
12325000: system.cpu.l1d.prefetcher: PC:   0X402B26
12325000: system.cpu.l1d.prefetcher: Spatial Region address:          0
12325000: system.cpu.l1d.prefetcher: Spatial Region physical address:      0X180
12325000: system.cpu.l1d.prefetcher: Spatial Region offset:        0X6
12395000: system.cpu.l1d.prefetcher: PC:   0X402B22
12395000: system.cpu.l1d.prefetcher: Spatial Region address:          0
12395000: system.cpu.l1d.prefetcher: Spatial Region physical address:      0X1C0
12395000: system.cpu.l1d.prefetcher: Spatial Region offset:        0X7
12461000: system.cpu.l1d.prefetcher: PC:   0X402B3D
12461000: system.cpu.l1d.prefetcher: Spatial Region address:      0X180
12461000: system.cpu.l1d.prefetcher: Spatial Region physical address:    0XC0100
12461000: system.cpu.l1d.prefetcher: Spatial Region offset:        0X4
12461000: system.cpu.l1d.prefetcher: PST address added: 0X20159E804
12551000: system.cpu.l1d.prefetcher: PC:   0X402B44
12551000: system.cpu.l1d.prefetcher: Spatial Region address:      0X182
12551000: system.cpu.l1d.prefetcher: Spatial Region physical address:    0XC1220
12551000: system.cpu.l1d.prefetcher: Spatial Region offset:        0X8
12551000: system.cpu.l1d.prefetcher: PST address added: 0X2015A2008
12618000: system.cpu.l1i.prefetcher: PC:   0X402C00
12618000: system.cpu.l1i.prefetcher: Spatial Region address:        0X5
12618000: system.cpu.l1i.prefetcher: Spatial Region physical address:     0X2C00
12618000: system.cpu.l1i.prefetcher: Spatial Region offset:       0X10
12618000: system.cpu.l1i.prefetcher: PST address added: 0X201600010
12692000: system.cpu.l1i.prefetcher: PC:   0X449230
12692000: system.cpu.l1i.prefetcher: Spatial Region address:       0X92
12692000: system.cpu.l1i.prefetcher: Spatial Region physical address:    0X49200
12692000: system.cpu.l1i.prefetcher: Spatial Region offset:        0X8
12692000: system.cpu.l1i.prefetcher: PST address added: 0X224918008
12769000: system.cpu.l1i.prefetcher: PC:   0X449240
12769000: system.cpu.l1i.prefetcher: Spatial Region address:       0X92
12769000: system.cpu.l1i.prefetcher: Spatial Region physical address:    0X49240
12769000: system.cpu.l1i.prefetcher: Spatial Region offset:        0X9
12769000: system.cpu.l1i.prefetcher: PST address added: 0X224920009
12833000: system.cpu.l1i.prefetcher: PC:   0X449280
12833000: system.cpu.l1i.prefetcher: Spatial Region address:       0X92
12833000: system.cpu.l1i.prefetcher: Spatial Region physical address:    0X49280
12833000: system.cpu.l1i.prefetcher: Spatial Region offset:        0XA
12833000: system.cpu.l1i.prefetcher: PST address added: 0X22494000A
12838000: system.cpu.l1d.prefetcher: PC:   0X44923E
12838000: system.cpu.l1d.prefetcher: Spatial Region address:      0X185
12838000: system.cpu.l1d.prefetcher: Spatial Region physical address:    0XC2F38
12838000: system.cpu.l1d.prefetcher: Spatial Region offset:       0X1C
12838000: system.cpu.l1d.prefetcher: PST address added: 0X22491F01C
12897000: system.cpu.l1i.prefetcher: PC:   0X4492C0
12897000: system.cpu.l1i.prefetcher: Spatial Region address:       0X92
12897000: system.cpu.l1i.prefetcher: Spatial Region physical address:    0X492C0
12897000: system.cpu.l1i.prefetcher: Spatial Region offset:        0XB
12897000: system.cpu.l1i.prefetcher: PST address added: 0X22496000B
12966000: system.cpu.l1i.prefetcher: PC:   0X449300
12966000: system.cpu.l1i.prefetcher: Spatial Region address:       0X92
12966000: system.cpu.l1i.prefetcher: Spatial Region physical address:    0X49300
12966000: system.cpu.l1i.prefetcher: Spatial Region offset:        0XC
12966000: system.cpu.l1i.prefetcher: PST address added: 0X22498000C
13030000: system.cpu.l1i.prefetcher: PC:   0X471530
13030000: system.cpu.l1i.prefetcher: Spatial Region address:       0XE2
13030000: system.cpu.l1i.prefetcher: Spatial Region physical address:    0X71500
13030000: system.cpu.l1i.prefetcher: Spatial Region offset:       0X14
13030000: system.cpu.l1i.prefetcher: PST address added: 0X238A98014
13094000: system.cpu.l1i.prefetcher: PC:   0X471540
13094000: system.cpu.l1i.prefetcher: Spatial Region address:       0XE2
13094000: system.cpu.l1i.prefetcher: Spatial Region physical address:    0X71540
13094000: system.cpu.l1i.prefetcher: Spatial Region offset:       0X15
13094000: system.cpu.l1i.prefetcher: PST address added: 0X238AA0015
13162000: system.cpu.l1i.prefetcher: PC:   0X471580
13162000: system.cpu.l1i.prefetcher: Spatial Region address:       0XE2
13162000: system.cpu.l1i.prefetcher: Spatial Region physical address:    0X71580
13162000: system.cpu.l1i.prefetcher: Spatial Region offset:       0X16
13162000: system.cpu.l1i.prefetcher: PST address added: 0X238AC0016
13268000: system.cpu.l1i.prefetcher: PC:   0X449340
13268000: system.cpu.l1i.prefetcher: Spatial Region address:       0X92
13268000: system.cpu.l1i.prefetcher: Spatial Region physical address:    0X49340
13268000: system.cpu.l1i.prefetcher: Spatial Region offset:        0XD
13268000: system.cpu.l1i.prefetcher: PST address added: 0X2249A000D
13348000: system.cpu.l1i.prefetcher: PC:   0X4715C0
13348000: system.cpu.l1i.prefetcher: Spatial Region address:       0XE2
13348000: system.cpu.l1i.prefetcher: Spatial Region physical address:    0X715C0
13348000: system.cpu.l1i.prefetcher: Spatial Region offset:       0X17
13348000: system.cpu.l1i.prefetcher: PST address added: 0X238AE0017
13428000: system.cpu.l1i.prefetcher: PC:   0X449380
13428000: system.cpu.l1i.prefetcher: Spatial Region address:       0X92
13428000: system.cpu.l1i.prefetcher: Spatial Region physical address:    0X49380
13428000: system.cpu.l1i.prefetcher: Spatial Region offset:        0XE
13428000: system.cpu.l1i.prefetcher: PST address added: 0X2249C000E
13502000: system.cpu.l1d.prefetcher: PC:   0X402B80
13502000: system.cpu.l1d.prefetcher: Spatial Region address:      0X186
13502000: system.cpu.l1d.prefetcher: Spatial Region physical address:    0XC3320
13502000: system.cpu.l1d.prefetcher: Spatial Region offset:        0XC
13502000: system.cpu.l1d.prefetcher: PST address added: 0X2015C000C
13504000: system.cpu.l1i.prefetcher: PC:   0X402C40
13504000: system.cpu.l1i.prefetcher: Spatial Region address:        0X5
13504000: system.cpu.l1i.prefetcher: Spatial Region physical address:     0X2C40
13504000: system.cpu.l1i.prefetcher: Spatial Region offset:       0X11
13504000: system.cpu.l1i.prefetcher: PST address added: 0X201620011
13583000: system.cpu.l1d.prefetcher: PC:   0X402BD2
13583000: system.cpu.l1d.prefetcher: Spatial Region address:      0X182
13583000: system.cpu.l1d.prefetcher: Spatial Region physical address:    0XC1670
13583000: system.cpu.l1d.prefetcher: Spatial Region offset:       0X19
13583000: system.cpu.l1d.prefetcher: PST address added: 0X2015E9019
13584000: system.cpu.l1d.prefetcher: PC:   0X402BD9
13584000: system.cpu.l1d.prefetcher: Spatial Region address:      0X186
13584000: system.cpu.l1d.prefetcher: Spatial Region physical address:    0XC3340
13584000: system.cpu.l1d.prefetcher: Spatial Region offset:        0XD
13584000: system.cpu.l1d.prefetcher: PST address added: 0X2015EC80D
13600000: system.cpu.l1i.prefetcher: PC:   0X401060
13600000: system.cpu.l1i.prefetcher: Spatial Region address:        0X2
13600000: system.cpu.l1i.prefetcher: Spatial Region physical address:     0X1040
13600000: system.cpu.l1i.prefetcher: Spatial Region offset:        0X1
13600000: system.cpu.l1i.prefetcher: PST address added: 0X200830001
13646000: system.cpu.l1d.prefetcher: PC:   0X402BE0
13646000: system.cpu.l1d.prefetcher: Spatial Region address:      0X186
13646000: system.cpu.l1d.prefetcher: Spatial Region physical address:    0XC3348
13646000: system.cpu.l1d.prefetcher: Spatial Region offset:        0XD
13646000: system.cpu.l1d.prefetcher: PST address added: 0X2015F000D
13691000: system.cpu.l1i.prefetcher: PC:   0X401080
13691000: system.cpu.l1i.prefetcher: Spatial Region address:        0X2
13691000: system.cpu.l1i.prefetcher: Spatial Region physical address:     0X1080
13691000: system.cpu.l1i.prefetcher: Spatial Region offset:        0X2
13755000: system.cpu.l1i.prefetcher: PC:   0X445A40
13755000: system.cpu.l1i.prefetcher: Spatial Region address:       0X8B
13755000: system.cpu.l1i.prefetcher: Spatial Region physical address:    0X45A40
13755000: system.cpu.l1i.prefetcher: Spatial Region offset:        0X9
13755000: system.cpu.l1i.prefetcher: PST address added: 0X222D20009
13846000: system.cpu.l1i.prefetcher: PC:   0X445A80
13846000: system.cpu.l1i.prefetcher: Spatial Region address:       0X8B
13846000: system.cpu.l1i.prefetcher: Spatial Region physical address:    0X45A80
13846000: system.cpu.l1i.prefetcher: Spatial Region offset:        0XA
13846000: system.cpu.l1i.prefetcher: PST address added: 0X222D4000A
13855000: system.cpu.l1d.prefetcher: PC:   0X445A5B
13855000: system.cpu.l1d.prefetcher: Spatial Region address:      0X178
13855000: system.cpu.l1d.prefetcher: Spatial Region physical address:    0XBC0C0
13855000: system.cpu.l1d.prefetcher: Spatial Region offset:        0X3
13855000: system.cpu.l1d.prefetcher: PST address added: 0X222D2D803
13856000: system.cpu.l1d.prefetcher: PC:   0X445A5B
13856000: system.cpu.l1d.prefetcher: Spatial Region address:      0X178
13856000: system.cpu.l1d.prefetcher: Spatial Region physical address:    0XBC0C8
13856000: system.cpu.l1d.prefetcher: Spatial Region offset:        0X3
13856000: system.cpu.l1d.prefetcher: PST address added: 0X222D2D803
13910000: system.cpu.l1i.prefetcher: PC:   0X445AC0
13910000: system.cpu.l1i.prefetcher: Spatial Region address:       0X8B
13910000: system.cpu.l1i.prefetcher: Spatial Region physical address:    0X45AC0
13910000: system.cpu.l1i.prefetcher: Spatial Region offset:        0XB
13910000: system.cpu.l1i.prefetcher: PST address added: 0X222D6000B
13980000: system.cpu.l1d.prefetcher: PC:   0X445A63
13980000: system.cpu.l1d.prefetcher: Spatial Region address:      0X18D
13980000: system.cpu.l1d.prefetcher: Spatial Region physical address:    0XC6820
13980000: system.cpu.l1d.prefetcher: Spatial Region offset:          0
13980000: system.cpu.l1d.prefetcher: PST address added: 0X222D31800
13981000: system.cpu.l1d.prefetcher: PC:   0X445A63
13981000: system.cpu.l1d.prefetcher: Spatial Region address:      0X18D
13981000: system.cpu.l1d.prefetcher: Spatial Region physical address:    0XC6828
13981000: system.cpu.l1d.prefetcher: Spatial Region offset:          0
13981000: system.cpu.l1d.prefetcher: PST address added: 0X222D31800
13983000: system.cpu.l1i.prefetcher: PC:   0X445B00
13983000: system.cpu.l1i.prefetcher: Spatial Region address:       0X8B
13983000: system.cpu.l1i.prefetcher: Spatial Region physical address:    0X45B00
13983000: system.cpu.l1i.prefetcher: Spatial Region offset:        0XC
13983000: system.cpu.l1i.prefetcher: PST address added: 0X222D8000C
14067000: system.cpu.l1i.prefetcher: PC:   0X402C80
14067000: system.cpu.l1i.prefetcher: Spatial Region address:        0X5
14067000: system.cpu.l1i.prefetcher: Spatial Region physical address:     0X2C80
14067000: system.cpu.l1i.prefetcher: Spatial Region offset:       0X12
14067000: system.cpu.l1i.prefetcher: PST address added: 0X201640012
14072000: system.cpu.l1d.prefetcher: PC:   0X402C05
14072000: system.cpu.l1d.prefetcher: Spatial Region address:      0X18D
14072000: system.cpu.l1d.prefetcher: Spatial Region physical address:    0XC6888
14072000: system.cpu.l1d.prefetcher: Spatial Region offset:        0X2
14075000: system.cpu.l1d.prefetcher: PC:   0X402C0E
14075000: system.cpu.l1d.prefetcher: Spatial Region address:      0X18D
14075000: system.cpu.l1d.prefetcher: Spatial Region physical address:    0XC6880
14075000: system.cpu.l1d.prefetcher: Spatial Region offset:        0X2
14075000: system.cpu.l1d.prefetcher: PST address added: 0X201607002
14165000: system.cpu.l1i.prefetcher: PC:   0X402CC0
14165000: system.cpu.l1i.prefetcher: Spatial Region address:        0X5
14165000: system.cpu.l1i.prefetcher: Spatial Region physical address:     0X2CC0
14165000: system.cpu.l1i.prefetcher: Spatial Region offset:       0X13
14165000: system.cpu.l1i.prefetcher: PST address added: 0X201660013
14237000: system.cpu.l1i.prefetcher: PC:   0X402D00
14237000: system.cpu.l1i.prefetcher: Spatial Region address:        0X5
14237000: system.cpu.l1i.prefetcher: Spatial Region physical address:     0X2D00
14237000: system.cpu.l1i.prefetcher: Spatial Region offset:       0X14
14237000: system.cpu.l1i.prefetcher: PST address added: 0X201680014
14243000: system.cpu.l1d.prefetcher: PC:   0X402C44
14243000: system.cpu.l1d.prefetcher: Spatial Region address:      0X186
14243000: system.cpu.l1d.prefetcher: Spatial Region physical address:    0XC3720
14243000: system.cpu.l1d.prefetcher: Spatial Region offset:       0X1C
14243000: system.cpu.l1d.prefetcher: PST address added: 0X20162201C
14252000: system.cpu.l1d.prefetcher: PC:   0X402C6F
14252000: system.cpu.l1d.prefetcher: Spatial Region address:      0X184
14252000: system.cpu.l1d.prefetcher: Spatial Region physical address:    0XC22B8
14252000: system.cpu.l1d.prefetcher: Spatial Region offset:        0XA
14252000: system.cpu.l1d.prefetcher: PST address added: 0X20163780A
14337000: system.cpu.l1i.prefetcher: PC:   0X402D40
14337000: system.cpu.l1i.prefetcher: Spatial Region address:        0X5
14337000: system.cpu.l1i.prefetcher: Spatial Region physical address:     0X2D40
14337000: system.cpu.l1i.prefetcher: Spatial Region offset:       0X15
14337000: system.cpu.l1i.prefetcher: PST address added: 0X2016A0015
14432000: system.cpu.l1i.prefetcher: PC:   0X4024C0
14432000: system.cpu.l1i.prefetcher: Spatial Region address:        0X4
14432000: system.cpu.l1i.prefetcher: Spatial Region physical address:     0X24C0
14432000: system.cpu.l1i.prefetcher: Spatial Region offset:       0X13
14438000: system.cpu.l1d.prefetcher: PC:   0X402476
14438000: system.cpu.l1d.prefetcher: Spatial Region address:      0X18D
14438000: system.cpu.l1d.prefetcher: Spatial Region physical address:    0XC68C8
14438000: system.cpu.l1d.prefetcher: Spatial Region offset:        0X3
14438000: system.cpu.l1d.prefetcher: PST address added: 0X20123B003
14496000: system.cpu.l1i.prefetcher: PC:   0X4026EE
14496000: system.cpu.l1i.prefetcher: Spatial Region address:        0X4
14496000: system.cpu.l1i.prefetcher: Spatial Region physical address:     0X26C0
14496000: system.cpu.l1i.prefetcher: Spatial Region offset:       0X1B
14560000: system.cpu.l1i.prefetcher: PC:   0X402700
14560000: system.cpu.l1i.prefetcher: Spatial Region address:        0X4
14560000: system.cpu.l1i.prefetcher: Spatial Region physical address:     0X2700
14560000: system.cpu.l1i.prefetcher: Spatial Region offset:       0X1C
14624000: system.cpu.l1i.prefetcher: PC:   0X44E310
14624000: system.cpu.l1i.prefetcher: Spatial Region address:       0X9C
14624000: system.cpu.l1i.prefetcher: Spatial Region physical address:    0X4E300
14624000: system.cpu.l1i.prefetcher: Spatial Region offset:        0XC
14624000: system.cpu.l1i.prefetcher: PST address added: 0X22718800C
14715000: system.cpu.l1i.prefetcher: PC:   0X44E340
14715000: system.cpu.l1i.prefetcher: Spatial Region address:       0X9C
14715000: system.cpu.l1i.prefetcher: Spatial Region physical address:    0X4E340
14715000: system.cpu.l1i.prefetcher: Spatial Region offset:        0XD
14715000: system.cpu.l1i.prefetcher: PST address added: 0X2271A000D
14731000: system.cpu.l1d.prefetcher: PC:   0X44E324
14731000: system.cpu.l1d.prefetcher: Spatial Region address:      0X189
14731000: system.cpu.l1d.prefetcher: Spatial Region physical address:    0XC4B28
14731000: system.cpu.l1d.prefetcher: Spatial Region offset:        0XC
14731000: system.cpu.l1d.prefetcher: PST address added: 0X22719200C
14779000: system.cpu.l1i.prefetcher: PC:   0X4712E0
14779000: system.cpu.l1i.prefetcher: Spatial Region address:       0XE2
14779000: system.cpu.l1i.prefetcher: Spatial Region physical address:    0X712C0
14779000: system.cpu.l1i.prefetcher: Spatial Region offset:        0XB
14779000: system.cpu.l1i.prefetcher: PST address added: 0X23897000B
14843000: system.cpu.l1i.prefetcher: PC:   0X471300
14843000: system.cpu.l1i.prefetcher: Spatial Region address:       0XE2
14843000: system.cpu.l1i.prefetcher: Spatial Region physical address:    0X71300
14843000: system.cpu.l1i.prefetcher: Spatial Region offset:        0XC
14911000: system.cpu.l1i.prefetcher: PC:   0X471340
14911000: system.cpu.l1i.prefetcher: Spatial Region address:       0XE2
14911000: system.cpu.l1i.prefetcher: Spatial Region physical address:    0X71340
14911000: system.cpu.l1i.prefetcher: Spatial Region offset:        0XD
14979000: system.cpu.l1i.prefetcher: PC:   0X44E380
14979000: system.cpu.l1i.prefetcher: Spatial Region address:       0X9C
14979000: system.cpu.l1i.prefetcher: Spatial Region physical address:    0X4E380
14979000: system.cpu.l1i.prefetcher: Spatial Region offset:        0XE
14979000: system.cpu.l1i.prefetcher: PST address added: 0X2271C000E
14983000: system.cpu.l1d.prefetcher: PC:   0X44E33E
14983000: system.cpu.l1d.prefetcher: Spatial Region address:      0X189
14983000: system.cpu.l1d.prefetcher: Spatial Region physical address:    0XC4BF2
14983000: system.cpu.l1d.prefetcher: Spatial Region offset:        0XF
15043000: system.cpu.l1i.prefetcher: PC:   0X44E3C0
15043000: system.cpu.l1i.prefetcher: Spatial Region address:       0X9C
15043000: system.cpu.l1i.prefetcher: Spatial Region physical address:    0X4E3C0
15043000: system.cpu.l1i.prefetcher: Spatial Region offset:        0XF
15043000: system.cpu.l1i.prefetcher: PST address added: 0X2271E000F
15118000: system.cpu.l1i.prefetcher: PC:   0X44E400
15118000: system.cpu.l1i.prefetcher: Spatial Region address:       0X9C
15118000: system.cpu.l1i.prefetcher: Spatial Region physical address:    0X4E400
15118000: system.cpu.l1i.prefetcher: Spatial Region offset:       0X10
15118000: system.cpu.l1i.prefetcher: PST address added: 0X227200010
15300000: system.cpu.l1i.prefetcher: PC:   0X402740
15300000: system.cpu.l1i.prefetcher: Spatial Region address:        0X4
15300000: system.cpu.l1i.prefetcher: Spatial Region physical address:     0X2740
15300000: system.cpu.l1i.prefetcher: Spatial Region offset:       0X1D
15368000: system.cpu.l1i.prefetcher: PC:   0X402500
15368000: system.cpu.l1i.prefetcher: Spatial Region address:        0X4
15368000: system.cpu.l1i.prefetcher: Spatial Region physical address:     0X2500
15368000: system.cpu.l1i.prefetcher: Spatial Region offset:       0X14
15371000: system.cpu.l1d.prefetcher: PC:   0X4024A0
15371000: system.cpu.l1d.prefetcher: Spatial Region address:      0X17D
15371000: system.cpu.l1d.prefetcher: Spatial Region physical address:    0XBEF80
15371000: system.cpu.l1d.prefetcher: Spatial Region offset:       0X1E
15371000: system.cpu.l1d.prefetcher: PST address added: 0X20125001E
15432000: system.cpu.l1i.prefetcher: PC:   0X402540
15432000: system.cpu.l1i.prefetcher: Spatial Region address:        0X4
[...]
91239000: system.cpu.l1i.prefetcher: Spatial Region offset:       0X1C
91239000: system.cpu.l1i.prefetcher: PST address added: 0X207F8001C
91256000: system.cpu.l1d.prefetcher: PC:   0X40FE8A
91256000: system.cpu.l1d.prefetcher: Spatial Region address:      0X17D
91256000: system.cpu.l1d.prefetcher: Spatial Region physical address:    0XBEFD8
91256000: system.cpu.l1d.prefetcher: Spatial Region offset:       0X1F
91256000: system.cpu.l1d.prefetcher: PST address added: 0X207F4501F
91316000: system.cpu.l1i.prefetcher: PC:   0X40FF40
91316000: system.cpu.l1i.prefetcher: Spatial Region address:       0X1F
91316000: system.cpu.l1i.prefetcher: Spatial Region physical address:     0XFF40
91316000: system.cpu.l1i.prefetcher: Spatial Region offset:       0X1D
91316000: system.cpu.l1i.prefetcher: PST address added: 0X207FA001D
91399000: system.cpu.l1i.prefetcher: PC:   0X40FF80
91399000: system.cpu.l1i.prefetcher: Spatial Region address:       0X1F
91399000: system.cpu.l1i.prefetcher: Spatial Region physical address:     0XFF80
91399000: system.cpu.l1i.prefetcher: Spatial Region offset:       0X1E
91399000: system.cpu.l1i.prefetcher: PST address added: 0X207FC001E
91476000: system.cpu.l1i.prefetcher: PC:   0X40FFC0
91476000: system.cpu.l1i.prefetcher: Spatial Region address:       0X1F
91476000: system.cpu.l1i.prefetcher: Spatial Region physical address:     0XFFC0
91476000: system.cpu.l1i.prefetcher: Spatial Region offset:       0X1F
91476000: system.cpu.l1i.prefetcher: PST address added: 0X207FE001F
91561000: system.cpu.l1i.prefetcher: PC:   0X4016E0
91561000: system.cpu.l1i.prefetcher: Spatial Region address:        0X2
91561000: system.cpu.l1i.prefetcher: Spatial Region physical address:     0X16C0
91561000: system.cpu.l1i.prefetcher: Spatial Region offset:       0X1B
91561000: system.cpu.l1i.prefetcher: PST address added: 0X200B7001B
91643000: system.cpu.l1d.prefetcher: PC:   0X4016E4
91643000: system.cpu.l1d.prefetcher: Spatial Region address:      0X185
91643000: system.cpu.l1d.prefetcher: Spatial Region physical address:    0XC2FF8
91643000: system.cpu.l1d.prefetcher: Spatial Region offset:       0X1F
91643000: system.cpu.l1d.prefetcher: PST address added: 0X200B7201F
91746000: system.cpu.l1i.prefetcher: PC:   0X402EC0
91746000: system.cpu.l1i.prefetcher: Spatial Region address:        0X5
91746000: system.cpu.l1i.prefetcher: Spatial Region physical address:     0X2EC0
91746000: system.cpu.l1i.prefetcher: Spatial Region offset:       0X1B
91746000: system.cpu.l1i.prefetcher: PST address added: 0X20176001B
91867000: system.cpu.l1i.prefetcher: PC:   0X401C20
91867000: system.cpu.l1i.prefetcher: Spatial Region address:        0X3
91867000: system.cpu.l1i.prefetcher: Spatial Region physical address:     0X1C00
91867000: system.cpu.l1i.prefetcher: Spatial Region offset:       0X10
91921000: system.cpu.l1i.prefetcher: PC:   0X4920D0
91921000: system.cpu.l1i.prefetcher: Spatial Region address:      0X124
91921000: system.cpu.l1i.prefetcher: Spatial Region physical address:    0X920C0
91921000: system.cpu.l1i.prefetcher: Spatial Region offset:        0X3
91921000: system.cpu.l1i.prefetcher: PST address added: 0X249068003
91998000: system.cpu.l1i.prefetcher: PC:   0X492100
91998000: system.cpu.l1i.prefetcher: Spatial Region address:      0X124
91998000: system.cpu.l1i.prefetcher: Spatial Region physical address:    0X92100
91998000: system.cpu.l1i.prefetcher: Spatial Region offset:        0X4
91998000: system.cpu.l1i.prefetcher: PST address added: 0X249080004
92062000: system.cpu.l1i.prefetcher: PC:   0X491FA0
92062000: system.cpu.l1i.prefetcher: Spatial Region address:      0X123
92062000: system.cpu.l1i.prefetcher: Spatial Region physical address:    0X91F80
92062000: system.cpu.l1i.prefetcher: Spatial Region offset:       0X1E
92062000: system.cpu.l1i.prefetcher: PST address added: 0X248FD001E
92153000: system.cpu.l1i.prefetcher: PC:   0X491FC0
92153000: system.cpu.l1i.prefetcher: Spatial Region address:      0X123
92153000: system.cpu.l1i.prefetcher: Spatial Region physical address:    0X91FC0
92153000: system.cpu.l1i.prefetcher: Spatial Region offset:       0X1F
92153000: system.cpu.l1i.prefetcher: PST address added: 0X248FE001F
92217000: system.cpu.l1i.prefetcher: PC:   0X492000
92217000: system.cpu.l1i.prefetcher: Spatial Region address:      0X124
92217000: system.cpu.l1i.prefetcher: Spatial Region physical address:    0X92000
92217000: system.cpu.l1i.prefetcher: Spatial Region offset:          0
92217000: system.cpu.l1i.prefetcher: PST address added: 0X249000000
92285000: system.cpu.l1i.prefetcher: PC:   0X492040
92285000: system.cpu.l1i.prefetcher: Spatial Region address:      0X124
92285000: system.cpu.l1i.prefetcher: Spatial Region physical address:    0X92040
92285000: system.cpu.l1i.prefetcher: Spatial Region offset:        0X1
92357000: system.cpu.l1i.prefetcher: PC:   0X492080
92357000: system.cpu.l1i.prefetcher: Spatial Region address:      0X124
92357000: system.cpu.l1i.prefetcher: Spatial Region physical address:    0X92080
92357000: system.cpu.l1i.prefetcher: Spatial Region offset:        0X2
92478000: system.cpu.l1i.prefetcher: PC:   0X494570
92478000: system.cpu.l1i.prefetcher: Spatial Region address:      0X128
92478000: system.cpu.l1i.prefetcher: Spatial Region physical address:    0X94540
92478000: system.cpu.l1i.prefetcher: Spatial Region offset:       0X15
92478000: system.cpu.l1i.prefetcher: PST address added: 0X24A2B8015
92555000: system.cpu.l1i.prefetcher: PC:   0X494580
92555000: system.cpu.l1i.prefetcher: Spatial Region address:      0X128
92555000: system.cpu.l1i.prefetcher: Spatial Region physical address:    0X94580
92555000: system.cpu.l1i.prefetcher: Spatial Region offset:       0X16
92555000: system.cpu.l1i.prefetcher: PST address added: 0X24A2C0016
92626000: system.cpu.l1i.prefetcher: PC:   0X410000
92626000: system.cpu.l1i.prefetcher: Spatial Region address:       0X20
92626000: system.cpu.l1i.prefetcher: Spatial Region physical address:    0X10000
92626000: system.cpu.l1i.prefetcher: Spatial Region offset:          0
92746000: system.cpu.l1i.prefetcher: PC:   0X410040
92746000: system.cpu.l1i.prefetcher: Spatial Region address:       0X20
92746000: system.cpu.l1i.prefetcher: Spatial Region physical address:    0X10040
92746000: system.cpu.l1i.prefetcher: Spatial Region offset:        0X1
92814000: system.cpu.l1i.prefetcher: PC:   0X410080
92814000: system.cpu.l1i.prefetcher: Spatial Region address:       0X20
92814000: system.cpu.l1i.prefetcher: Spatial Region physical address:    0X10080
92814000: system.cpu.l1i.prefetcher: Spatial Region offset:        0X2
92908000: system.cpu.l1i.prefetcher: PC:   0X4100C0
92908000: system.cpu.l1i.prefetcher: Spatial Region address:       0X20
92908000: system.cpu.l1i.prefetcher: Spatial Region physical address:    0X100C0
92908000: system.cpu.l1i.prefetcher: Spatial Region offset:        0X3
92930000: system.cpu.l1d.prefetcher: PC:   0X410088
92930000: system.cpu.l1d.prefetcher: Spatial Region address:      0X184
92930000: system.cpu.l1d.prefetcher: Spatial Region physical address:    0XC2228
92930000: system.cpu.l1d.prefetcher: Spatial Region offset:        0X8
92930000: system.cpu.l1d.prefetcher: PST address added: 0X208044008
93022000: system.cpu.l1i.prefetcher: PC:   0X418880
93022000: system.cpu.l1i.prefetcher: Spatial Region address:       0X31
93022000: system.cpu.l1i.prefetcher: Spatial Region physical address:    0X18880
93022000: system.cpu.l1i.prefetcher: Spatial Region offset:        0X2
93022000: system.cpu.l1i.prefetcher: PST address added: 0X20C440002
93099000: system.cpu.l1i.prefetcher: PC:   0X4188C0
93099000: system.cpu.l1i.prefetcher: Spatial Region address:       0X31
93099000: system.cpu.l1i.prefetcher: Spatial Region physical address:    0X188C0
93099000: system.cpu.l1i.prefetcher: Spatial Region offset:        0X3
93099000: system.cpu.l1i.prefetcher: PST address added: 0X20C460003
93163000: system.cpu.l1i.prefetcher: PC:   0X418580
93163000: system.cpu.l1i.prefetcher: Spatial Region address:       0X30
93163000: system.cpu.l1i.prefetcher: Spatial Region physical address:    0X18580
93163000: system.cpu.l1i.prefetcher: Spatial Region offset:       0X16
93163000: system.cpu.l1i.prefetcher: PST address added: 0X20C2C0016
93227000: system.cpu.l1i.prefetcher: PC:   0X4185C0
93227000: system.cpu.l1i.prefetcher: Spatial Region address:       0X30
93227000: system.cpu.l1i.prefetcher: Spatial Region physical address:    0X185C0
93227000: system.cpu.l1i.prefetcher: Spatial Region offset:       0X17
93227000: system.cpu.l1i.prefetcher: PST address added: 0X20C2E0017
93291000: system.cpu.l1i.prefetcher: PC:   0X4187B0
93291000: system.cpu.l1i.prefetcher: Spatial Region address:       0X30
93291000: system.cpu.l1i.prefetcher: Spatial Region physical address:    0X18780
93291000: system.cpu.l1i.prefetcher: Spatial Region offset:       0X1E
93291000: system.cpu.l1i.prefetcher: PST address added: 0X20C3D801E
93355000: system.cpu.l1i.prefetcher: PC:   0X4187C0
93355000: system.cpu.l1i.prefetcher: Spatial Region address:       0X30
93355000: system.cpu.l1i.prefetcher: Spatial Region physical address:    0X187C0
93355000: system.cpu.l1i.prefetcher: Spatial Region offset:       0X1F
93355000: system.cpu.l1i.prefetcher: PST address added: 0X20C3E001F
93419000: system.cpu.l1i.prefetcher: PC:   0X418800
93419000: system.cpu.l1i.prefetcher: Spatial Region address:       0X31
93419000: system.cpu.l1i.prefetcher: Spatial Region physical address:    0X18800
93419000: system.cpu.l1i.prefetcher: Spatial Region offset:          0
93419000: system.cpu.l1i.prefetcher: PST address added: 0X20C400000
93485000: system.cpu.l1i.prefetcher: PC:   0X418600
93485000: system.cpu.l1i.prefetcher: Spatial Region address:       0X30
93485000: system.cpu.l1i.prefetcher: Spatial Region physical address:    0X18600
93485000: system.cpu.l1i.prefetcher: Spatial Region offset:       0X18
93485000: system.cpu.l1i.prefetcher: PST address added: 0X20C300018
93491000: system.cpu.l1d.prefetcher: PC:   0X4185CE
93491000: system.cpu.l1d.prefetcher: Spatial Region address:      0X185
93491000: system.cpu.l1d.prefetcher: Spatial Region physical address:    0XC2C58
93491000: system.cpu.l1d.prefetcher: Spatial Region offset:       0X11
93781000: system.cpu.l1i.prefetcher: PC:   0X418640
93781000: system.cpu.l1i.prefetcher: Spatial Region address:       0X30
93781000: system.cpu.l1i.prefetcher: Spatial Region physical address:    0X18640
93781000: system.cpu.l1i.prefetcher: Spatial Region offset:       0X19
93781000: system.cpu.l1i.prefetcher: PST address added: 0X20C320019
93815000: system.cpu.l1d.prefetcher: PC:   0X418630
93815000: system.cpu.l1d.prefetcher: Spatial Region address:      0X180
93815000: system.cpu.l1d.prefetcher: Spatial Region physical address:    0XC01E0
93815000: system.cpu.l1d.prefetcher: Spatial Region offset:        0X7
93845000: system.cpu.l1i.prefetcher: PC:   0X4186D4
93845000: system.cpu.l1i.prefetcher: Spatial Region address:       0X30
93845000: system.cpu.l1i.prefetcher: Spatial Region physical address:    0X186C0
93845000: system.cpu.l1i.prefetcher: Spatial Region offset:       0X1B
93845000: system.cpu.l1i.prefetcher: PST address added: 0X20C36A01B
93909000: system.cpu.l1i.prefetcher: PC:   0X418700
93909000: system.cpu.l1i.prefetcher: Spatial Region address:       0X30
93909000: system.cpu.l1i.prefetcher: Spatial Region physical address:    0X18700
93909000: system.cpu.l1i.prefetcher: Spatial Region offset:       0X1C
93909000: system.cpu.l1i.prefetcher: PST address added: 0X20C38001C
93917000: system.cpu.l1d.prefetcher: PC:   0X4186DF
93917000: system.cpu.l1d.prefetcher: Spatial Region address:      0X180
93917000: system.cpu.l1d.prefetcher: Spatial Region physical address:    0XC0140
93917000: system.cpu.l1d.prefetcher: Spatial Region offset:        0X5
93975000: system.cpu.l1i.prefetcher: PC:   0X418740
93975000: system.cpu.l1i.prefetcher: Spatial Region address:       0X30
93975000: system.cpu.l1i.prefetcher: Spatial Region physical address:    0X18740
93975000: system.cpu.l1i.prefetcher: Spatial Region offset:       0X1D
93975000: system.cpu.l1i.prefetcher: PST address added: 0X20C3A001D
93979000: system.cpu.l1d.prefetcher: PC:   0X41871D
93979000: system.cpu.l1d.prefetcher: Spatial Region address:      0X180
93979000: system.cpu.l1d.prefetcher: Spatial Region physical address:    0XC0200
93979000: system.cpu.l1d.prefetcher: Spatial Region offset:        0X8
94053000: system.cpu.l1i.prefetcher: PC:   0X418680
94053000: system.cpu.l1i.prefetcher: Spatial Region address:       0X30
94053000: system.cpu.l1i.prefetcher: Spatial Region physical address:    0X18680
94053000: system.cpu.l1i.prefetcher: Spatial Region offset:       0X1A
94053000: system.cpu.l1i.prefetcher: PST address added: 0X20C34001A
94135000: system.cpu.l1d.prefetcher: PC:   0X4186CB
94135000: system.cpu.l1d.prefetcher: Spatial Region address:      0X180
94135000: system.cpu.l1d.prefetcher: Spatial Region physical address:    0XC01A8
94135000: system.cpu.l1d.prefetcher: Spatial Region offset:        0X6
94201000: system.cpu.l1d.prefetcher: PC:   0X4186DF
94201000: system.cpu.l1d.prefetcher: Spatial Region address:      0X180
94201000: system.cpu.l1d.prefetcher: Spatial Region physical address:    0XC0320
94201000: system.cpu.l1d.prefetcher: Spatial Region offset:        0XC
94264000: system.cpu.l1d.prefetcher: PC:   0X41871D
94264000: system.cpu.l1d.prefetcher: Spatial Region address:      0X180
94264000: system.cpu.l1d.prefetcher: Spatial Region physical address:    0XC03E0
94264000: system.cpu.l1d.prefetcher: Spatial Region offset:        0XF
94327000: system.cpu.l1d.prefetcher: PC:   0X41872B
94327000: system.cpu.l1d.prefetcher: Spatial Region address:      0X180
94327000: system.cpu.l1d.prefetcher: Spatial Region physical address:    0XC0340
94327000: system.cpu.l1d.prefetcher: Spatial Region offset:        0XD
94328000: system.cpu.l1d.prefetcher: PC:   0X41872F
94328000: system.cpu.l1d.prefetcher: Spatial Region address:      0X180
94328000: system.cpu.l1d.prefetcher: Spatial Region physical address:    0XC0348
94328000: system.cpu.l1d.prefetcher: Spatial Region offset:        0XD
94419000: system.cpu.l1d.prefetcher: PC:   0X4186CB
94419000: system.cpu.l1d.prefetcher: Spatial Region address:      0X180
94419000: system.cpu.l1d.prefetcher: Spatial Region physical address:    0XC0388
94419000: system.cpu.l1d.prefetcher: Spatial Region offset:        0XE
94485000: system.cpu.l1d.prefetcher: PC:   0X4186DF
94485000: system.cpu.l1d.prefetcher: Spatial Region address:      0X180
94485000: system.cpu.l1d.prefetcher: Spatial Region physical address:    0XC0500
94485000: system.cpu.l1d.prefetcher: Spatial Region offset:       0X14
94548000: system.cpu.l1d.prefetcher: PC:   0X41871D
94548000: system.cpu.l1d.prefetcher: Spatial Region address:      0X180
94548000: system.cpu.l1d.prefetcher: Spatial Region physical address:    0XC05C0
94548000: system.cpu.l1d.prefetcher: Spatial Region offset:       0X17
94642000: system.cpu.l1d.prefetcher: PC:   0X4186CB
94642000: system.cpu.l1d.prefetcher: Spatial Region address:      0X180
94642000: system.cpu.l1d.prefetcher: Spatial Region physical address:    0XC0568
94642000: system.cpu.l1d.prefetcher: Spatial Region offset:       0X15
94769000: system.cpu.l1i.prefetcher: PC:   0X418840
94769000: system.cpu.l1i.prefetcher: Spatial Region address:       0X31
94769000: system.cpu.l1i.prefetcher: Spatial Region physical address:    0X18840
94769000: system.cpu.l1i.prefetcher: Spatial Region offset:        0X1
94837000: system.cpu.l1i.prefetcher: PC:   0X418900
94837000: system.cpu.l1i.prefetcher: Spatial Region address:       0X31
94837000: system.cpu.l1i.prefetcher: Spatial Region physical address:    0X18900
94837000: system.cpu.l1i.prefetcher: Spatial Region offset:        0X4
94901000: system.cpu.l1i.prefetcher: PC:   0X418AF8
94901000: system.cpu.l1i.prefetcher: Spatial Region address:       0X31
94901000: system.cpu.l1i.prefetcher: Spatial Region physical address:    0X18AC0
94901000: system.cpu.l1i.prefetcher: Spatial Region offset:        0XB
94965000: system.cpu.l1i.prefetcher: PC:   0X418B00
94965000: system.cpu.l1i.prefetcher: Spatial Region address:       0X31
94965000: system.cpu.l1i.prefetcher: Spatial Region physical address:    0X18B00
94965000: system.cpu.l1i.prefetcher: Spatial Region offset:        0XC
95029000: system.cpu.l1i.prefetcher: PC:   0X418B40
95029000: system.cpu.l1i.prefetcher: Spatial Region address:       0X31
95029000: system.cpu.l1i.prefetcher: Spatial Region physical address:    0X18B40
95029000: system.cpu.l1i.prefetcher: Spatial Region offset:        0XD
95097000: system.cpu.l1i.prefetcher: PC:   0X418940
95097000: system.cpu.l1i.prefetcher: Spatial Region address:       0X31
95097000: system.cpu.l1i.prefetcher: Spatial Region physical address:    0X18940
95097000: system.cpu.l1i.prefetcher: Spatial Region offset:        0X5
95163000: system.cpu.l1i.prefetcher: PC:   0X418980
95163000: system.cpu.l1i.prefetcher: Spatial Region address:       0X31
95163000: system.cpu.l1i.prefetcher: Spatial Region physical address:    0X18980
95163000: system.cpu.l1i.prefetcher: Spatial Region offset:        0X6
95235000: system.cpu.l1i.prefetcher: PC:   0X4189C0
95235000: system.cpu.l1i.prefetcher: Spatial Region address:       0X31
95235000: system.cpu.l1i.prefetcher: Spatial Region physical address:    0X189C0
95235000: system.cpu.l1i.prefetcher: Spatial Region offset:        0X7
95314000: system.cpu.l1i.prefetcher: PC:   0X418A00
95314000: system.cpu.l1i.prefetcher: Spatial Region address:       0X31
95314000: system.cpu.l1i.prefetcher: Spatial Region physical address:    0X18A00
95314000: system.cpu.l1i.prefetcher: Spatial Region offset:        0X8
95317000: system.cpu.l1d.prefetcher: PC:   0X418958
95317000: system.cpu.l1d.prefetcher: Spatial Region address:      0X180
95317000: system.cpu.l1d.prefetcher: Spatial Region physical address:    0XC0588
95317000: system.cpu.l1d.prefetcher: Spatial Region offset:       0X16
95394000: system.cpu.l1i.prefetcher: PC:   0X418A50
95394000: system.cpu.l1i.prefetcher: Spatial Region address:       0X31
95394000: system.cpu.l1i.prefetcher: Spatial Region physical address:    0X18A40
95394000: system.cpu.l1i.prefetcher: Spatial Region offset:        0X9
95458000: system.cpu.l1i.prefetcher: PC:   0X418A80
95458000: system.cpu.l1i.prefetcher: Spatial Region address:       0X31
95458000: system.cpu.l1i.prefetcher: Spatial Region physical address:    0X18A80
95458000: system.cpu.l1i.prefetcher: Spatial Region offset:        0XA
95581000: system.cpu.l1i.prefetcher: PC:   0X418B80
95581000: system.cpu.l1i.prefetcher: Spatial Region address:       0X31
95581000: system.cpu.l1i.prefetcher: Spatial Region physical address:    0X18B80
95581000: system.cpu.l1i.prefetcher: Spatial Region offset:        0XE
95661000: system.cpu.l1i.prefetcher: PC:   0X447E20
95661000: system.cpu.l1i.prefetcher: Spatial Region address:       0X8F
95661000: system.cpu.l1i.prefetcher: Spatial Region physical address:    0X47E00
95661000: system.cpu.l1i.prefetcher: Spatial Region offset:       0X18
95661000: system.cpu.l1i.prefetcher: PST address added: 0X223F10018
95738000: system.cpu.l1i.prefetcher: PC:   0X447E40
95738000: system.cpu.l1i.prefetcher: Spatial Region address:       0X8F
95738000: system.cpu.l1i.prefetcher: Spatial Region physical address:    0X47E40
95738000: system.cpu.l1i.prefetcher: Spatial Region offset:       0X19
95738000: system.cpu.l1i.prefetcher: PST address added: 0X223F20019
95804000: system.cpu.l1i.prefetcher: PC:   0X447E80
95804000: system.cpu.l1i.prefetcher: Spatial Region address:       0X8F
95804000: system.cpu.l1i.prefetcher: Spatial Region physical address:    0X47E80
95804000: system.cpu.l1i.prefetcher: Spatial Region offset:       0X1A
95804000: system.cpu.l1i.prefetcher: PST address added: 0X223F4001A
Exit Eventexiting with last active thread context
Dump stats at the end of the ROI!
