gem5 Simulator System.  http://gem5.org
gem5 is copyrighted software; use the --copyright option for details.

gem5 version 20.1.0.2
gem5 compiled Dec  8 2021 05:50:25
gem5 started Dec  8 2021 05:51:51
gem5 executing on ARCH-750, pid 996332
command line: /data/home/ycc32/450_project/gem5/build/X86/gem5.opt --debug-flags=HWPrefetch -re --outdir=/data/home/ycc32/450_project/gem5/results/X86/run_micro/CCl/Minor4/Slow/DDR3_2133_8x8/1GHz gem5-config/run_micro.py Minor4 Slow microbenchmark/CCl/bench.X86 DDR3_2133_8x8 --clock=1GHz

1GHz CPU speed and DRAM = DDR3_2133_8x8
system.py: init L2 cache with size 1MB
Global frequency set at 1000000000000 ticks per second
   1000: system.cpu.l1i.prefetcher: INSERTENTRY(): spatio_region:        0X3, pc:   0x401be0, physical addr:     0x1bc0
   1000: system.cpu.l1i.prefetcher: Created FT entry with:   0x401be0
   1000: system.cpu.l1i.prefetcher: CONGRATS: SUCCESS in inserting new FT entry found!!
  79000: system.cpu.l1i.prefetcher: INSERTENTRY(): spatio_region:        0X3, pc:   0x401c00, physical addr:     0x1c00
  79000: system.cpu.l1i.prefetcher: Created FT entry with:   0x401c00
  79000: system.cpu.l1i.prefetcher: CONGRATS: SUCCESS in inserting new FT entry found!!
  82000: system.cpu.l1d.prefetcher: INSERTENTRY(): spatio_region:      0X189, pc:   0x401be9, physical addr:    0xc4e40
  82000: system.cpu.l1d.prefetcher: Created FT entry with:   0x401be9
  82000: system.cpu.l1d.prefetcher: CONGRATS: SUCCESS in inserting new FT entry found!!
 143000: system.cpu.l1i.prefetcher: INSERTENTRY(): spatio_region:        0X3, pc:   0x401c40, physical addr:     0x1c40
 143000: system.cpu.l1i.prefetcher: Created FT entry with:   0x401c40
 143000: system.cpu.l1i.prefetcher: CONGRATS: SUCCESS in inserting new FT entry found!!
 161000: system.cpu.l1d.prefetcher: INSERTENTRY(): spatio_region:      0X189, pc:   0x401bf1, physical addr:    0xc4e38
 161000: system.cpu.l1d.prefetcher: Created FT entry with:   0x401bf1
 161000: system.cpu.l1d.prefetcher: CONGRATS: SUCCESS in inserting new FT entry found!!
 162000: system.cpu.l1d.prefetcher: INSERTENTRY(): spatio_region:      0X189, pc:   0x401bf2, physical addr:    0xc4e30
 162000: system.cpu.l1d.prefetcher: Created FT entry with:   0x401bf2
 162000: system.cpu.l1d.prefetcher: CONGRATS: SUCCESS in inserting new FT entry found!!
 207000: system.cpu.l1i.prefetcher: INSERTENTRY(): spatio_region:        0X4, pc:   0x4020f0, physical addr:     0x20c0
 207000: system.cpu.l1i.prefetcher: Created FT entry with:   0x4020f0
 207000: system.cpu.l1i.prefetcher: CONGRATS: SUCCESS in inserting new FT entry found!!
 284000: system.cpu.l1i.prefetcher: INSERTENTRY(): spatio_region:        0X4, pc:   0x402100, physical addr:     0x2100
 284000: system.cpu.l1i.prefetcher: Created FT entry with:   0x402100
 284000: system.cpu.l1i.prefetcher: CONGRATS: SUCCESS in inserting new FT entry found!!
 348000: system.cpu.l1i.prefetcher: INSERTENTRY(): spatio_region:        0X4, pc:   0x402140, physical addr:     0x2140
 348000: system.cpu.l1i.prefetcher: Created FT entry with:   0x402140
 348000: system.cpu.l1i.prefetcher: CONGRATS: SUCCESS in inserting new FT entry found!!
 359000: system.cpu.l1d.prefetcher: INSERTENTRY(): spatio_region:      0X189, pc:   0x40210e, physical addr:    0xc4d30
 359000: system.cpu.l1d.prefetcher: Created FT entry with:   0x40210e
 359000: system.cpu.l1d.prefetcher: CONGRATS: SUCCESS in inserting new FT entry found!!
 362000: system.cpu.l1d.prefetcher: INSERTENTRY(): spatio_region:      0X189, pc:   0x40211a, physical addr:    0xc4d38
 362000: system.cpu.l1d.prefetcher: Created FT entry with:   0x40211a
 362000: system.cpu.l1d.prefetcher: CONGRATS: SUCCESS in inserting new FT entry found!!
 416000: system.cpu.l1i.prefetcher: INSERTENTRY(): spatio_region:        0X4, pc:   0x402180, physical addr:     0x2180
 416000: system.cpu.l1i.prefetcher: Created FT entry with:   0x402180
 416000: system.cpu.l1i.prefetcher: CONGRATS: SUCCESS in inserting new FT entry found!!
 422000: system.cpu.l1d.prefetcher: INSERTENTRY(): spatio_region:      0X182, pc:   0x402131, physical addr:    0xc16c8
 422000: system.cpu.l1d.prefetcher: Created FT entry with:   0x402131
 422000: system.cpu.l1d.prefetcher: CONGRATS: SUCCESS in inserting new FT entry found!!
 485000: system.cpu.l1i.prefetcher: INSERTENTRY(): spatio_region:        0X3, pc:   0x401c80, physical addr:     0x1c80
 485000: system.cpu.l1i.prefetcher: Created FT entry with:   0x401c80
 485000: system.cpu.l1i.prefetcher: CONGRATS: SUCCESS in inserting new FT entry found!!
 582000: system.cpu.l1i.prefetcher: INSERTENTRY(): spatio_region:        0X4, pc:   0x4021c0, physical addr:     0x21c0
 582000: system.cpu.l1i.prefetcher: Created FT entry with:   0x4021c0
 582000: system.cpu.l1i.prefetcher: CONGRATS: SUCCESS in inserting new FT entry found!!
 589000: system.cpu.l1d.prefetcher: INSERTENTRY(): spatio_region:      0X185, pc:   0x402153, physical addr:    0xc2ce8
 589000: system.cpu.l1d.prefetcher: Created FT entry with:   0x402153
 589000: system.cpu.l1d.prefetcher: CONGRATS: SUCCESS in inserting new FT entry found!!
 592000: system.cpu.l1d.prefetcher: INSERTENTRY(): spatio_region:      0X17D, pc:   0x40215a, physical addr:    0xbea70
 592000: system.cpu.l1d.prefetcher: Created FT entry with:   0x40215a
 592000: system.cpu.l1d.prefetcher: CONGRATS: SUCCESS in inserting new FT entry found!!
 646000: system.cpu.l1i.prefetcher: INSERTENTRY(): spatio_region:        0X4, pc:   0x402200, physical addr:     0x2200
 646000: system.cpu.l1i.prefetcher: Created FT entry with:   0x402200
 646000: system.cpu.l1i.prefetcher: CONGRATS: SUCCESS in inserting new FT entry found!!
 737000: system.cpu.l1i.prefetcher: INSERTENTRY(): spatio_region:       0X98, pc:   0x44c3f0, physical addr:    0x4c3c0
 737000: system.cpu.l1i.prefetcher: Created FT entry with:   0x44c3f0
 737000: system.cpu.l1i.prefetcher: CONGRATS: SUCCESS in inserting new FT entry found!!
 814000: system.cpu.l1i.prefetcher: INSERTENTRY(): spatio_region:       0X98, pc:   0x44c400, physical addr:    0x4c400
 814000: system.cpu.l1i.prefetcher: Created FT entry with:   0x44c400
 814000: system.cpu.l1i.prefetcher: CONGRATS: SUCCESS in inserting new FT entry found!!
 821000: system.cpu.l1d.prefetcher: INSERTENTRY(): spatio_region:      0X186, pc:   0x44c3f7, physical addr:    0xc37e0
 821000: system.cpu.l1d.prefetcher: Created FT entry with:   0x44c3f7
 821000: system.cpu.l1d.prefetcher: CONGRATS: SUCCESS in inserting new FT entry found!!
 878000: system.cpu.l1i.prefetcher: INSERTENTRY(): spatio_region:       0X98, pc:   0x44c440, physical addr:    0x4c440
 878000: system.cpu.l1i.prefetcher: Created FT entry with:   0x44c440
 878000: system.cpu.l1i.prefetcher: CONGRATS: SUCCESS in inserting new FT entry found!!
 887000: system.cpu.l1d.prefetcher: INSERTENTRY(): spatio_region:      0X185, pc:   0x44c409, physical addr:    0xc2d00
 887000: system.cpu.l1d.prefetcher: Created FT entry with:   0x44c409
 887000: system.cpu.l1d.prefetcher: CONGRATS: SUCCESS in inserting new FT entry found!!
 942000: system.cpu.l1i.prefetcher: INSERTENTRY(): spatio_region:       0X98, pc:   0x44c480, physical addr:    0x4c480
 942000: system.cpu.l1i.prefetcher: Created FT entry with:   0x44c480
 942000: system.cpu.l1i.prefetcher: CONGRATS: SUCCESS in inserting new FT entry found!!
 952000: system.cpu.l1d.prefetcher: INSERTENTRY(): spatio_region:      0X187, pc:   0x44c418, physical addr:    0xc3890
 952000: system.cpu.l1d.prefetcher: Created FT entry with:   0x44c418
 952000: system.cpu.l1d.prefetcher: CONGRATS: SUCCESS in inserting new FT entry found!!
1006000: system.cpu.l1i.prefetcher: INSERTENTRY(): spatio_region:       0X98, pc:   0x44c4c0, physical addr:    0x4c4c0
1006000: system.cpu.l1i.prefetcher: Created FT entry with:   0x44c4c0
1006000: system.cpu.l1i.prefetcher: CONGRATS: SUCCESS in inserting new FT entry found!!
1017000: system.cpu.l1d.prefetcher: INSERTENTRY(): spatio_region:      0X182, pc:   0x44c426, physical addr:    0xc1118
1017000: system.cpu.l1d.prefetcher: Created FT entry with:   0x44c426
1017000: system.cpu.l1d.prefetcher: CONGRATS: SUCCESS in inserting new FT entry found!!
1108000: system.cpu.l1d.prefetcher: INSERTENTRY(): spatio_region:      0X187, pc:   0x44c434, physical addr:    0xc3848
1108000: system.cpu.l1d.prefetcher: Created FT entry with:   0x44c434
1108000: system.cpu.l1d.prefetcher: CONGRATS: SUCCESS in inserting new FT entry found!!
1171000: system.cpu.l1d.prefetcher: INSERTENTRY(): spatio_region:      0X187, pc:   0x44c43b, physical addr:    0xc3810
1171000: system.cpu.l1d.prefetcher: Created FT entry with:   0x44c43b
1171000: system.cpu.l1d.prefetcher: CONGRATS: SUCCESS in inserting new FT entry found!!
1172000: system.cpu.l1i.prefetcher: INSERTENTRY(): spatio_region:       0X98, pc:   0x44c500, physical addr:    0x4c500
1172000: system.cpu.l1i.prefetcher: Created FT entry with:   0x44c500
1172000: system.cpu.l1i.prefetcher: CONGRATS: SUCCESS in inserting new FT entry found!!
1236000: system.cpu.l1d.prefetcher: INSERTENTRY(): spatio_region:      0X189, pc:   0x44c442, physical addr:    0xc4cf8
1236000: system.cpu.l1d.prefetcher: Created FT entry with:   0x44c442
1236000: system.cpu.l1d.prefetcher: CONGRATS: SUCCESS in inserting new FT entry found!!
1237000: system.cpu.l1d.prefetcher: INSERTENTRY(): spatio_region:      0X189, pc:   0x44c447, physical addr:    0xc4cf0
1237000: system.cpu.l1d.prefetcher: Created FT entry with:   0x44c447
1237000: system.cpu.l1d.prefetcher: CONGRATS: SUCCESS in inserting new FT entry found!!
1305000: system.cpu.l1d.prefetcher: INSERTENTRY(): spatio_region:      0X17D, pc:   0x44c45b, physical addr:    0xbeaa0
1305000: system.cpu.l1d.prefetcher: Created FT entry with:   0x44c45b
1305000: system.cpu.l1d.prefetcher: CONGRATS: SUCCESS in inserting new FT entry found!!
1384000: system.cpu.l1i.prefetcher: INSERTENTRY(): spatio_region:       0X98, pc:   0x44c540, physical addr:    0x4c540
1384000: system.cpu.l1i.prefetcher: Created FT entry with:   0x44c540
1384000: system.cpu.l1i.prefetcher: CONGRATS: SUCCESS in inserting new FT entry found!!
1404000: system.cpu.l1d.prefetcher: INSERTENTRY(): spatio_region:      0X189, pc:   0x44c4b4, physical addr:    0xc4cb8
1404000: system.cpu.l1d.prefetcher: Created FT entry with:   0x44c4b4
1404000: system.cpu.l1d.prefetcher: CONGRATS: SUCCESS in inserting new FT entry found!!
1405000: system.cpu.l1d.prefetcher: INSERTENTRY(): spatio_region:      0X189, pc:   0x44c4bb, physical addr:    0xc4cb0
1405000: system.cpu.l1d.prefetcher: Created FT entry with:   0x44c4bb
1405000: system.cpu.l1d.prefetcher: CONGRATS: SUCCESS in inserting new FT entry found!!
1448000: system.cpu.l1i.prefetcher: INSERTENTRY(): spatio_region:       0X98, pc:   0x44c580, physical addr:    0x4c580
1448000: system.cpu.l1i.prefetcher: Created FT entry with:   0x44c580
1448000: system.cpu.l1i.prefetcher: CONGRATS: SUCCESS in inserting new FT entry found!!
1467000: system.cpu.l1d.prefetcher: INSERTENTRY(): spatio_region:      0X131, pc:   0x44c4d2, physical addr:    0x98fb8
1467000: system.cpu.l1d.prefetcher: Created FT entry with:   0x44c4d2
1467000: system.cpu.l1d.prefetcher: CONGRATS: SUCCESS in inserting new FT entry found!!
1546000: system.cpu.l1i.prefetcher: INSERTENTRY(): spatio_region:       0X98, pc:   0x44c5e0, physical addr:    0x4c5c0
1546000: system.cpu.l1i.prefetcher: Created FT entry with:   0x44c5e0
1546000: system.cpu.l1i.prefetcher: CONGRATS: SUCCESS in inserting new FT entry found!!
1610000: system.cpu.l1i.prefetcher: INSERTENTRY(): spatio_region:       0X98, pc:   0x44c600, physical addr:    0x4c600
1610000: system.cpu.l1i.prefetcher: Created FT entry with:   0x44c600
1610000: system.cpu.l1i.prefetcher: CONGRATS: SUCCESS in inserting new FT entry found!!
1683000: system.cpu.l1d.prefetcher: INSERTENTRY(): spatio_region:      0X131, pc:   0x44c4d2, physical addr:    0x98f74
1683000: system.cpu.l1d.prefetcher: Created FT entry with:   0x44c4d2
1683000: system.cpu.l1d.prefetcher: CONGRATS: SUCCESS in inserting new FT entry found!!
1749000: system.cpu.l1i.prefetcher: INSERTENTRY(): spatio_region:       0X98, pc:   0x44c6b0, physical addr:    0x4c680
1749000: system.cpu.l1i.prefetcher: Created FT entry with:   0x44c6b0
1749000: system.cpu.l1i.prefetcher: CONGRATS: SUCCESS in inserting new FT entry found!!
1813000: system.cpu.l1i.prefetcher: INSERTENTRY(): spatio_region:       0X98, pc:   0x44c6c0, physical addr:    0x4c6c0
1813000: system.cpu.l1i.prefetcher: Created FT entry with:   0x44c6c0
1813000: system.cpu.l1i.prefetcher: CONGRATS: SUCCESS in inserting new FT entry found!!
1877000: system.cpu.l1i.prefetcher: INSERTENTRY(): spatio_region:       0X98, pc:   0x44c700, physical addr:    0x4c700
1877000: system.cpu.l1i.prefetcher: Created FT entry with:   0x44c700
1877000: system.cpu.l1i.prefetcher: CONGRATS: SUCCESS in inserting new FT entry found!!
1881000: system.cpu.l1d.prefetcher: INSERTENTRY(): spatio_region:      0X189, pc:   0x44c6c2, physical addr:    0xc4e80
1881000: system.cpu.l1d.prefetcher: Created FT entry with:   0x44c6c2
1881000: system.cpu.l1d.prefetcher: CONGRATS: SUCCESS in inserting new FT entry found!!
1941000: system.cpu.l1i.prefetcher: INSERTENTRY(): spatio_region:       0X98, pc:   0x44c740, physical addr:    0x4c740
1941000: system.cpu.l1i.prefetcher: Created FT entry with:   0x44c740
1941000: system.cpu.l1i.prefetcher: CONGRATS: SUCCESS in inserting new FT entry found!!
2020000: system.cpu.l1i.prefetcher: INSERTENTRY(): spatio_region:       0X98, pc:   0x44c780, physical addr:    0x4c780
2020000: system.cpu.l1i.prefetcher: Created FT entry with:   0x44c780
2020000: system.cpu.l1i.prefetcher: CONGRATS: SUCCESS in inserting new FT entry found!!
2084000: system.cpu.l1i.prefetcher: INSERTENTRY(): spatio_region:       0X98, pc:   0x44c7c0, physical addr:    0x4c7c0
2084000: system.cpu.l1i.prefetcher: Created FT entry with:   0x44c7c0
2084000: system.cpu.l1i.prefetcher: CONGRATS: SUCCESS in inserting new FT entry found!!
2197000: system.cpu.l1i.prefetcher: INSERTENTRY(): spatio_region:       0X99, pc:   0x44c800, physical addr:    0x4c800
2197000: system.cpu.l1i.prefetcher: Created FT entry with:   0x44c800
2197000: system.cpu.l1i.prefetcher: CONGRATS: SUCCESS in inserting new FT entry found!!
2296000: system.cpu.l1d.prefetcher: INSERTENTRY(): spatio_region:      0X189, pc:   0x44c4f0, physical addr:    0xc4ec0
2296000: system.cpu.l1d.prefetcher: Created FT entry with:   0x44c4f0
2296000: system.cpu.l1d.prefetcher: CONGRATS: SUCCESS in inserting new FT entry found!!
2389000: system.cpu.l1i.prefetcher: INSERTENTRY(): spatio_region:       0X99, pc:   0x44c840, physical addr:    0x4c840
2389000: system.cpu.l1i.prefetcher: Created FT entry with:   0x44c840
2389000: system.cpu.l1i.prefetcher: CONGRATS: SUCCESS in inserting new FT entry found!!
2539000: system.cpu.l1d.prefetcher: INSERTENTRY(): spatio_region:      0X189, pc:   0x44c4f0, physical addr:    0xc4f00
2539000: system.cpu.l1d.prefetcher: Created FT entry with:   0x44c4f0
2539000: system.cpu.l1d.prefetcher: CONGRATS: SUCCESS in inserting new FT entry found!!
2733000: system.cpu.l1d.prefetcher: INSERTENTRY(): spatio_region:      0X189, pc:   0x44c703, physical addr:    0xc4f40
2733000: system.cpu.l1d.prefetcher: Created FT entry with:   0x44c703
2733000: system.cpu.l1d.prefetcher: CONGRATS: SUCCESS in inserting new FT entry found!!
2820000: system.cpu.l1i.prefetcher: INSERTENTRY(): spatio_region:       0X98, pc:   0x44c640, physical addr:    0x4c640
2820000: system.cpu.l1i.prefetcher: Created FT entry with:   0x44c640
2820000: system.cpu.l1i.prefetcher: CONGRATS: SUCCESS in inserting new FT entry found!!
2994000: system.cpu.l1d.prefetcher: INSERTENTRY(): spatio_region:      0X189, pc:   0x44c6eb, physical addr:    0xc4f80
2994000: system.cpu.l1d.prefetcher: Created FT entry with:   0x44c6eb
2994000: system.cpu.l1d.prefetcher: CONGRATS: SUCCESS in inserting new FT entry found!!
3083000: system.cpu.l1i.prefetcher: INSERTENTRY(): spatio_region:       0X99, pc:   0x44c880, physical addr:    0x4c880
3083000: system.cpu.l1i.prefetcher: Created FT entry with:   0x44c880
3083000: system.cpu.l1i.prefetcher: CONGRATS: SUCCESS in inserting new FT entry found!!
3285000: system.cpu.l1i.prefetcher: INSERTENTRY(): spatio_region:        0X4, pc:   0x402240, physical addr:     0x2240
3285000: system.cpu.l1i.prefetcher: Created FT entry with:   0x402240
3285000: system.cpu.l1i.prefetcher: CONGRATS: SUCCESS in inserting new FT entry found!!
3376000: system.cpu.l1i.prefetcher: INSERTENTRY(): spatio_region:       0X9A, pc:   0x44d550, physical addr:    0x4d540
3376000: system.cpu.l1i.prefetcher: Created FT entry with:   0x44d550
3376000: system.cpu.l1i.prefetcher: CONGRATS: SUCCESS in inserting new FT entry found!!
3440000: system.cpu.l1i.prefetcher: INSERTENTRY(): spatio_region:       0X9A, pc:   0x44d580, physical addr:    0x4d580
3440000: system.cpu.l1i.prefetcher: Created FT entry with:   0x44d580
3440000: system.cpu.l1i.prefetcher: CONGRATS: SUCCESS in inserting new FT entry found!!
3517000: system.cpu.l1i.prefetcher: INSERTENTRY(): spatio_region:        0X4, pc:   0x402280, physical addr:     0x2280
3517000: system.cpu.l1i.prefetcher: Created FT entry with:   0x402280
3517000: system.cpu.l1i.prefetcher: CONGRATS: SUCCESS in inserting new FT entry found!!
3581000: system.cpu.l1i.prefetcher: INSERTENTRY(): spatio_region:       0X97, pc:   0x44bdf0, physical addr:    0x4bdc0
3581000: system.cpu.l1i.prefetcher: Created FT entry with:   0x44bdf0
3581000: system.cpu.l1i.prefetcher: CONGRATS: SUCCESS in inserting new FT entry found!!
3658000: system.cpu.l1i.prefetcher: INSERTENTRY(): spatio_region:       0X97, pc:   0x44be00, physical addr:    0x4be00
3658000: system.cpu.l1i.prefetcher: Created FT entry with:   0x44be00
3658000: system.cpu.l1i.prefetcher: CONGRATS: SUCCESS in inserting new FT entry found!!
3722000: system.cpu.l1i.prefetcher: INSERTENTRY(): spatio_region:       0X97, pc:   0x44be40, physical addr:    0x4be40
3722000: system.cpu.l1i.prefetcher: Created FT entry with:   0x44be40
3722000: system.cpu.l1i.prefetcher: CONGRATS: SUCCESS in inserting new FT entry found!!
3786000: system.cpu.l1i.prefetcher: INSERTENTRY(): spatio_region:       0X97, pc:   0x44bf3a, physical addr:    0x4bf00
3786000: system.cpu.l1i.prefetcher: Created FT entry with:   0x44bf3a
3786000: system.cpu.l1i.prefetcher: CONGRATS: SUCCESS in inserting new FT entry found!!
3850000: system.cpu.l1i.prefetcher: INSERTENTRY(): spatio_region:       0X97, pc:   0x44bf40, physical addr:    0x4bf40
3850000: system.cpu.l1i.prefetcher: Created FT entry with:   0x44bf40
3850000: system.cpu.l1i.prefetcher: CONGRATS: SUCCESS in inserting new FT entry found!!
3914000: system.cpu.l1i.prefetcher: INSERTENTRY(): spatio_region:       0X97, pc:   0x44bf80, physical addr:    0x4bf80
3914000: system.cpu.l1i.prefetcher: Created FT entry with:   0x44bf80
3914000: system.cpu.l1i.prefetcher: CONGRATS: SUCCESS in inserting new FT entry found!!
3986000: system.cpu.l1d.prefetcher: INSERTENTRY(): spatio_region:      0X189, pc:   0x4021c5, physical addr:    0xc4d4c
3986000: system.cpu.l1d.prefetcher: Created FT entry with:   0x4021c5
3986000: system.cpu.l1d.prefetcher: CONGRATS: SUCCESS in inserting new FT entry found!!
4001000: system.cpu.l1d.prefetcher: INSERTENTRY(): spatio_region:      0X189, pc:   0x4021cf, physical addr:    0xc4d50
4001000: system.cpu.l1d.prefetcher: Created FT entry with:   0x4021cf
4001000: system.cpu.l1d.prefetcher: CONGRATS: SUCCESS in inserting new FT entry found!!
4013000: system.cpu.l1i.prefetcher: INSERTENTRY(): spatio_region:        0X4, pc:   0x40235d, physical addr:     0x2340
4013000: system.cpu.l1i.prefetcher: Created FT entry with:   0x40235d
4013000: system.cpu.l1i.prefetcher: CONGRATS: SUCCESS in inserting new FT entry found!!
4049000: system.cpu.l1d.prefetcher: INSERTENTRY(): spatio_region:      0X185, pc:   0x4021df, physical addr:    0xc2d8c
4049000: system.cpu.l1d.prefetcher: Created FT entry with:   0x4021df
4049000: system.cpu.l1d.prefetcher: CONGRATS: SUCCESS in inserting new FT entry found!!
4077000: system.cpu.l1i.prefetcher: INSERTENTRY(): spatio_region:        0X4, pc:   0x402380, physical addr:     0x2380
4077000: system.cpu.l1i.prefetcher: Created FT entry with:   0x402380
4077000: system.cpu.l1i.prefetcher: CONGRATS: SUCCESS in inserting new FT entry found!!
4186000: system.cpu.l1i.prefetcher: INSERTENTRY(): spatio_region:        0X5, pc:   0x4028b3, physical addr:     0x2880
4186000: system.cpu.l1i.prefetcher: Created FT entry with:   0x4028b3
4186000: system.cpu.l1i.prefetcher: CONGRATS: SUCCESS in inserting new FT entry found!!
4250000: system.cpu.l1i.prefetcher: INSERTENTRY(): spatio_region:        0X5, pc:   0x4028c0, physical addr:     0x28c0
4250000: system.cpu.l1i.prefetcher: Created FT entry with:   0x4028c0
4250000: system.cpu.l1i.prefetcher: CONGRATS: SUCCESS in inserting new FT entry found!!
4314000: system.cpu.l1i.prefetcher: INSERTENTRY(): spatio_region:        0X5, pc:   0x402900, physical addr:     0x2900
4314000: system.cpu.l1i.prefetcher: Created FT entry with:   0x402900
4314000: system.cpu.l1i.prefetcher: CONGRATS: SUCCESS in inserting new FT entry found!!
4389000: system.cpu.l1i.prefetcher: INSERTENTRY(): spatio_region:        0X4, pc:   0x4022c0, physical addr:     0x22c0
4389000: system.cpu.l1i.prefetcher: Created FT entry with:   0x4022c0
4389000: system.cpu.l1i.prefetcher: CONGRATS: SUCCESS in inserting new FT entry found!!
4453000: system.cpu.l1i.prefetcher: INSERTENTRY(): spatio_region:        0X3, pc:   0x401d70, physical addr:     0x1d40
4453000: system.cpu.l1i.prefetcher: Created FT entry with:   0x401d70
4453000: system.cpu.l1i.prefetcher: CONGRATS: SUCCESS in inserting new FT entry found!!
4544000: system.cpu.l1i.prefetcher: INSERTENTRY(): spatio_region:        0X3, pc:   0x401d80, physical addr:     0x1d80
4544000: system.cpu.l1i.prefetcher: Created FT entry with:   0x401d80
4544000: system.cpu.l1i.prefetcher: CONGRATS: SUCCESS in inserting new FT entry found!!
4608000: system.cpu.l1i.prefetcher: INSERTENTRY(): spatio_region:        0X3, pc:   0x401dd5, physical addr:     0x1dc0
4608000: system.cpu.l1i.prefetcher: Created FT entry with:   0x401dd5
4608000: system.cpu.l1i.prefetcher: CONGRATS: SUCCESS in inserting new FT entry found!!
4672000: system.cpu.l1i.prefetcher: INSERTENTRY(): spatio_region:        0X3, pc:   0x401e00, physical addr:     0x1e00
4672000: system.cpu.l1i.prefetcher: Created FT entry with:   0x401e00
4672000: system.cpu.l1i.prefetcher: CONGRATS: SUCCESS in inserting new FT entry found!!
4740000: system.cpu.l1i.prefetcher: INSERTENTRY(): spatio_region:        0X3, pc:   0x401e40, physical addr:     0x1e40
4740000: system.cpu.l1i.prefetcher: Created FT entry with:   0x401e40
4740000: system.cpu.l1i.prefetcher: CONGRATS: SUCCESS in inserting new FT entry found!!
4808000: system.cpu.l1i.prefetcher: INSERTENTRY(): spatio_region:        0X3, pc:   0x401e80, physical addr:     0x1e80
4808000: system.cpu.l1i.prefetcher: Created FT entry with:   0x401e80
4808000: system.cpu.l1i.prefetcher: CONGRATS: SUCCESS in inserting new FT entry found!!
4872000: system.cpu.l1i.prefetcher: INSERTENTRY(): spatio_region:        0X3, pc:   0x401f34, physical addr:     0x1f00
4872000: system.cpu.l1i.prefetcher: Created FT entry with:   0x401f34
4872000: system.cpu.l1i.prefetcher: CONGRATS: SUCCESS in inserting new FT entry found!!
4936000: system.cpu.l1i.prefetcher: INSERTENTRY(): spatio_region:        0X3, pc:   0x401f40, physical addr:     0x1f40
4936000: system.cpu.l1i.prefetcher: Created FT entry with:   0x401f40
4936000: system.cpu.l1i.prefetcher: CONGRATS: SUCCESS in inserting new FT entry found!!
5037000: system.cpu.l1i.prefetcher: INSERTENTRY(): spatio_region:        0X4, pc:   0x402300, physical addr:     0x2300
5037000: system.cpu.l1i.prefetcher: Created FT entry with:   0x402300
5037000: system.cpu.l1i.prefetcher: CONGRATS: SUCCESS in inserting new FT entry found!!
5101000: system.cpu.l1i.prefetcher: INSERTENTRY(): spatio_region:       0X98, pc:   0x44c380, physical addr:    0x4c380
5101000: system.cpu.l1i.prefetcher: Created FT entry with:   0x44c380
5101000: system.cpu.l1i.prefetcher: CONGRATS: SUCCESS in inserting new FT entry found!!
5173000: system.cpu.l1d.prefetcher: INSERTENTRY(): spatio_region:      0X17C, pc:   0x44c39c, physical addr:    0xbe7a8
5173000: system.cpu.l1d.prefetcher: Created FT entry with:   0x44c39c
5173000: system.cpu.l1d.prefetcher: CONGRATS: SUCCESS in inserting new FT entry found!!
5236000: system.cpu.l1d.prefetcher: INSERTENTRY(): spatio_region:      0X17C, pc:   0x44c3a0, physical addr:    0xbe7c0
5236000: system.cpu.l1d.prefetcher: Created FT entry with:   0x44c3a0
5236000: system.cpu.l1d.prefetcher: CONGRATS: SUCCESS in inserting new FT entry found!!
5364000: system.cpu.l1d.prefetcher: INSERTENTRY(): spatio_region:      0X17C, pc:   0x44c39c, physical addr:    0xbe620
5364000: system.cpu.l1d.prefetcher: Created FT entry with:   0x44c39c
5364000: system.cpu.l1d.prefetcher: CONGRATS: SUCCESS in inserting new FT entry found!!
5454000: system.cpu.l1d.prefetcher: INSERTENTRY(): spatio_region:      0X17C, pc:   0x44c3bc, physical addr:    0xbe640
5454000: system.cpu.l1d.prefetcher: Created FT entry with:   0x44c3bc
5454000: system.cpu.l1d.prefetcher: CONGRATS: SUCCESS in inserting new FT entry found!!
5541000: system.cpu.l1d.prefetcher: INSERTENTRY(): spatio_region:      0X185, pc:   0x402295, physical addr:    0xc2dc0
5541000: system.cpu.l1d.prefetcher: Created FT entry with:   0x402295
5541000: system.cpu.l1d.prefetcher: CONGRATS: SUCCESS in inserting new FT entry found!!
5559000: system.cpu.l1d.prefetcher: INSERTENTRY(): spatio_region:      0X17D, pc:   0x44c39c, physical addr:    0xbe888
5559000: system.cpu.l1d.prefetcher: Created FT entry with:   0x44c39c
5559000: system.cpu.l1d.prefetcher: CONGRATS: SUCCESS in inserting new FT entry found!!
5709000: system.cpu.l1d.prefetcher: INSERTENTRY(): spatio_region:      0X17C, pc:   0x44c39c, physical addr:    0xbe4d0
5709000: system.cpu.l1d.prefetcher: Created FT entry with:   0x44c39c
5709000: system.cpu.l1d.prefetcher: CONGRATS: SUCCESS in inserting new FT entry found!!
5857000: system.cpu.l1d.prefetcher: INSERTENTRY(): spatio_region:      0X17C, pc:   0x44c39c, physical addr:    0xbe770
5857000: system.cpu.l1d.prefetcher: Created FT entry with:   0x44c39c
5857000: system.cpu.l1d.prefetcher: CONGRATS: SUCCESS in inserting new FT entry found!!
5933000: system.cpu.l1d.prefetcher: INSERTENTRY(): spatio_region:      0X189, pc:   0x44c3e8, physical addr:    0xc4d80
5933000: system.cpu.l1d.prefetcher: Created FT entry with:   0x44c3e8
5933000: system.cpu.l1d.prefetcher: CONGRATS: SUCCESS in inserting new FT entry found!!
5975000: system.cpu.l1i.prefetcher: INSERTENTRY(): spatio_region:        0X4, pc:   0x4023c0, physical addr:     0x23c0
5975000: system.cpu.l1i.prefetcher: Created FT entry with:   0x4023c0
5975000: system.cpu.l1i.prefetcher: CONGRATS: SUCCESS in inserting new FT entry found!!
6142000: system.cpu.l1d.prefetcher: INSERTENTRY(): spatio_region:          0, pc:   0x402331, physical addr:      0x2e8
6142000: system.cpu.l1d.prefetcher: Created FT entry with:   0x402331
6142000: system.cpu.l1d.prefetcher: CONGRATS: SUCCESS in inserting new FT entry found!!
6211000: system.cpu.l1i.prefetcher: INSERTENTRY(): spatio_region:        0X4, pc:   0x402400, physical addr:     0x2400
6211000: system.cpu.l1i.prefetcher: Created FT entry with:   0x402400
6211000: system.cpu.l1i.prefetcher: CONGRATS: SUCCESS in inserting new FT entry found!!
6286000: system.cpu.l1i.prefetcher: INSERTENTRY(): spatio_region:       0X43, pc:   0x421960, physical addr:    0x21940
6286000: system.cpu.l1i.prefetcher: Created FT entry with:   0x421960
6286000: system.cpu.l1i.prefetcher: CONGRATS: SUCCESS in inserting new FT entry found!!
6377000: system.cpu.l1i.prefetcher: INSERTENTRY(): spatio_region:       0X43, pc:   0x421980, physical addr:    0x21980
6377000: system.cpu.l1i.prefetcher: Created FT entry with:   0x421980
6377000: system.cpu.l1i.prefetcher: CONGRATS: SUCCESS in inserting new FT entry found!!
6441000: system.cpu.l1i.prefetcher: INSERTENTRY(): spatio_region:       0X43, pc:   0x4219c0, physical addr:    0x219c0
6441000: system.cpu.l1i.prefetcher: Created FT entry with:   0x4219c0
6441000: system.cpu.l1i.prefetcher: CONGRATS: SUCCESS in inserting new FT entry found!!
6514000: system.cpu.l1d.prefetcher: INSERTENTRY(): spatio_region:      0X17E, pc:   0x402338, physical addr:    0xbf0d0
6514000: system.cpu.l1d.prefetcher: Created FT entry with:   0x402338
6514000: system.cpu.l1d.prefetcher: CONGRATS: SUCCESS in inserting new FT entry found!!
6526000: system.cpu.l1d.prefetcher: Updated AGT entry with:          0
6618000: system.cpu.l1i.prefetcher: INSERTENTRY(): spatio_region:       0X43, pc:   0x421ad0, physical addr:    0x21ac0
6618000: system.cpu.l1i.prefetcher: Created FT entry with:   0x421ad0
6618000: system.cpu.l1i.prefetcher: CONGRATS: SUCCESS in inserting new FT entry found!!
6709000: system.cpu.l1i.prefetcher: INSERTENTRY(): spatio_region:       0X43, pc:   0x421b00, physical addr:    0x21b00
6709000: system.cpu.l1i.prefetcher: Created FT entry with:   0x421b00
6709000: system.cpu.l1i.prefetcher: CONGRATS: SUCCESS in inserting new FT entry found!!
6773000: system.cpu.l1i.prefetcher: INSERTENTRY(): spatio_region:       0X43, pc:   0x421b40, physical addr:    0x21b40
6773000: system.cpu.l1i.prefetcher: Created FT entry with:   0x421b40
6773000: system.cpu.l1i.prefetcher: CONGRATS: SUCCESS in inserting new FT entry found!!
6864000: system.cpu.l1i.prefetcher: INSERTENTRY(): spatio_region:      0X109, pc:   0x484a60, physical addr:    0x84a40
6864000: system.cpu.l1i.prefetcher: Created FT entry with:   0x484a60
6864000: system.cpu.l1i.prefetcher: CONGRATS: SUCCESS in inserting new FT entry found!!
6955000: system.cpu.l1i.prefetcher: INSERTENTRY(): spatio_region:      0X109, pc:   0x484a80, physical addr:    0x84a80
6955000: system.cpu.l1i.prefetcher: Created FT entry with:   0x484a80
6955000: system.cpu.l1i.prefetcher: CONGRATS: SUCCESS in inserting new FT entry found!!
7046000: system.cpu.l1i.prefetcher: INSERTENTRY(): spatio_region:       0X43, pc:   0x421a70, physical addr:    0x21a40
7046000: system.cpu.l1i.prefetcher: Created FT entry with:   0x421a70
7046000: system.cpu.l1i.prefetcher: CONGRATS: SUCCESS in inserting new FT entry found!!
7110000: system.cpu.l1i.prefetcher: INSERTENTRY(): spatio_region:       0X43, pc:   0x421a80, physical addr:    0x21a80
7110000: system.cpu.l1i.prefetcher: Created FT entry with:   0x421a80
7110000: system.cpu.l1i.prefetcher: CONGRATS: SUCCESS in inserting new FT entry found!!
7197000: system.cpu.l1d.prefetcher: INSERTENTRY(): spatio_region:      0X17E, pc:   0x402338, physical addr:    0xbf0b8
7197000: system.cpu.l1d.prefetcher: Created FT entry with:   0x402338
7197000: system.cpu.l1d.prefetcher: CONGRATS: SUCCESS in inserting new FT entry found!!
7198000: system.cpu.l1d.prefetcher: Updated AGT entry with:          0
7304000: system.cpu.l1i.prefetcher: INSERTENTRY(): spatio_region:       0X44, pc:   0x422540, physical addr:    0x22540
7304000: system.cpu.l1i.prefetcher: Created FT entry with:   0x422540
7304000: system.cpu.l1i.prefetcher: CONGRATS: SUCCESS in inserting new FT entry found!!
7395000: system.cpu.l1i.prefetcher: INSERTENTRY(): spatio_region:       0X44, pc:   0x422580, physical addr:    0x22580
7395000: system.cpu.l1i.prefetcher: Created FT entry with:   0x422580
7395000: system.cpu.l1i.prefetcher: CONGRATS: SUCCESS in inserting new FT entry found!!
7461000: system.cpu.l1i.prefetcher: INSERTENTRY(): spatio_region:       0X44, pc:   0x4225c0, physical addr:    0x225c0
7461000: system.cpu.l1i.prefetcher: Created FT entry with:   0x4225c0
7461000: system.cpu.l1i.prefetcher: CONGRATS: SUCCESS in inserting new FT entry found!!
7527000: system.cpu.l1i.prefetcher: INSERTENTRY(): spatio_region:       0X44, pc:   0x422600, physical addr:    0x22600
7527000: system.cpu.l1i.prefetcher: Created FT entry with:   0x422600
7527000: system.cpu.l1i.prefetcher: CONGRATS: SUCCESS in inserting new FT entry found!!
7618000: system.cpu.l1i.prefetcher: INSERTENTRY(): spatio_region:      0X109, pc:   0x484d00, physical addr:    0x84d00
7618000: system.cpu.l1i.prefetcher: Created FT entry with:   0x484d00
7618000: system.cpu.l1i.prefetcher: CONGRATS: SUCCESS in inserting new FT entry found!!
7682000: system.cpu.l1i.prefetcher: INSERTENTRY(): spatio_region:      0X109, pc:   0x484d40, physical addr:    0x84d40
7682000: system.cpu.l1i.prefetcher: Created FT entry with:   0x484d40
7682000: system.cpu.l1i.prefetcher: CONGRATS: SUCCESS in inserting new FT entry found!!
7748000: system.cpu.l1i.prefetcher: INSERTENTRY(): spatio_region:      0X109, pc:   0x484d80, physical addr:    0x84d80
7748000: system.cpu.l1i.prefetcher: Created FT entry with:   0x484d80
7748000: system.cpu.l1i.prefetcher: CONGRATS: SUCCESS in inserting new FT entry found!!
7843000: system.cpu.l1i.prefetcher: INSERTENTRY(): spatio_region:       0X43, pc:   0x421a00, physical addr:    0x21a00
7843000: system.cpu.l1i.prefetcher: Created FT entry with:   0x421a00
7843000: system.cpu.l1i.prefetcher: CONGRATS: SUCCESS in inserting new FT entry found!!
8145000: system.cpu.l1d.prefetcher: Updated AGT entry with:          0
8146000: system.cpu.l1d.prefetcher: Updated AGT entry with:          0
8251000: system.cpu.l1i.prefetcher: INSERTENTRY(): spatio_region:       0XE0, pc:   0x470120, physical addr:    0x70100
8251000: system.cpu.l1i.prefetcher: Created FT entry with:   0x470120
8251000: system.cpu.l1i.prefetcher: CONGRATS: SUCCESS in inserting new FT entry found!!
8328000: system.cpu.l1i.prefetcher: INSERTENTRY(): spatio_region:       0XE0, pc:   0x470140, physical addr:    0x70140
8328000: system.cpu.l1i.prefetcher: Created FT entry with:   0x470140
8328000: system.cpu.l1i.prefetcher: CONGRATS: SUCCESS in inserting new FT entry found!!
8392000: system.cpu.l1i.prefetcher: INSERTENTRY(): spatio_region:       0XE0, pc:   0x470180, physical addr:    0x70180
8392000: system.cpu.l1i.prefetcher: Created FT entry with:   0x470180
8392000: system.cpu.l1i.prefetcher: CONGRATS: SUCCESS in inserting new FT entry found!!
8483000: system.cpu.l1i.prefetcher: INSERTENTRY(): spatio_region:       0X44, pc:   0x4224a0, physical addr:    0x22480
8483000: system.cpu.l1i.prefetcher: Created FT entry with:   0x4224a0
8483000: system.cpu.l1i.prefetcher: CONGRATS: SUCCESS in inserting new FT entry found!!
8560000: system.cpu.l1i.prefetcher: INSERTENTRY(): spatio_region:       0X44, pc:   0x4224c0, physical addr:    0x224c0
8560000: system.cpu.l1i.prefetcher: Created FT entry with:   0x4224c0
8560000: system.cpu.l1i.prefetcher: CONGRATS: SUCCESS in inserting new FT entry found!!
8624000: system.cpu.l1i.prefetcher: INSERTENTRY(): spatio_region:       0X44, pc:   0x422500, physical addr:    0x22500
8624000: system.cpu.l1i.prefetcher: Created FT entry with:   0x422500
8624000: system.cpu.l1i.prefetcher: CONGRATS: SUCCESS in inserting new FT entry found!!
8726000: system.cpu.l1d.prefetcher: Updated AGT entry with:          0
8791000: system.cpu.l1i.prefetcher: INSERTENTRY(): spatio_region:      0X109, pc:   0x484cc0, physical addr:    0x84cc0
8791000: system.cpu.l1i.prefetcher: Created FT entry with:   0x484cc0
8791000: system.cpu.l1i.prefetcher: CONGRATS: SUCCESS in inserting new FT entry found!!
8881000: system.cpu.l1i.prefetcher: INSERTENTRY(): spatio_region:      0X109, pc:   0x484dc0, physical addr:    0x84dc0
8881000: system.cpu.l1i.prefetcher: Created FT entry with:   0x484dc0
8881000: system.cpu.l1i.prefetcher: CONGRATS: SUCCESS in inserting new FT entry found!!
8972000: system.cpu.l1i.prefetcher: INSERTENTRY(): spatio_region:       0X44, pc:   0x422660, physical addr:    0x22640
8972000: system.cpu.l1i.prefetcher: Created FT entry with:   0x422660
8972000: system.cpu.l1i.prefetcher: CONGRATS: SUCCESS in inserting new FT entry found!!
9036000: system.cpu.l1i.prefetcher: INSERTENTRY(): spatio_region:       0X44, pc:   0x422680, physical addr:    0x22680
9036000: system.cpu.l1i.prefetcher: Created FT entry with:   0x422680
9036000: system.cpu.l1i.prefetcher: CONGRATS: SUCCESS in inserting new FT entry found!!
9100000: system.cpu.l1i.prefetcher: INSERTENTRY(): spatio_region:       0X44, pc:   0x4226c0, physical addr:    0x226c0
9100000: system.cpu.l1i.prefetcher: Created FT entry with:   0x4226c0
9100000: system.cpu.l1i.prefetcher: CONGRATS: SUCCESS in inserting new FT entry found!!
9168000: system.cpu.l1i.prefetcher: INSERTENTRY(): spatio_region:       0X44, pc:   0x422700, physical addr:    0x22700
9168000: system.cpu.l1i.prefetcher: Created FT entry with:   0x422700
9168000: system.cpu.l1i.prefetcher: CONGRATS: SUCCESS in inserting new FT entry found!!
9259000: system.cpu.l1i.prefetcher: INSERTENTRY(): spatio_region:       0X44, pc:   0x422370, physical addr:    0x22340
9259000: system.cpu.l1i.prefetcher: Created FT entry with:   0x422370
9259000: system.cpu.l1i.prefetcher: CONGRATS: SUCCESS in inserting new FT entry found!!
9323000: system.cpu.l1i.prefetcher: INSERTENTRY(): spatio_region:       0X44, pc:   0x422380, physical addr:    0x22380
9323000: system.cpu.l1i.prefetcher: Created FT entry with:   0x422380
9323000: system.cpu.l1i.prefetcher: CONGRATS: SUCCESS in inserting new FT entry found!!
9387000: system.cpu.l1i.prefetcher: INSERTENTRY(): spatio_region:       0X44, pc:   0x4223c0, physical addr:    0x223c0
9387000: system.cpu.l1i.prefetcher: Created FT entry with:   0x4223c0
9387000: system.cpu.l1i.prefetcher: CONGRATS: SUCCESS in inserting new FT entry found!!
9460000: system.cpu.l1d.prefetcher: INSERTENTRY(): spatio_region:      0X17E, pc:   0x402338, physical addr:    0xbf078
9460000: system.cpu.l1d.prefetcher: Created FT entry with:   0x402338
9460000: system.cpu.l1d.prefetcher: CONGRATS: SUCCESS in inserting new FT entry found!!
9461000: system.cpu.l1d.prefetcher: Updated AGT entry with:          0
9562000: system.cpu.l1i.prefetcher: INSERTENTRY(): spatio_region:       0X43, pc:   0x421b80, physical addr:    0x21b80
9562000: system.cpu.l1i.prefetcher: Created FT entry with:   0x421b80
9562000: system.cpu.l1i.prefetcher: CONGRATS: SUCCESS in inserting new FT entry found!!
9658000: system.cpu.l1i.prefetcher: INSERTENTRY(): spatio_region:       0X43, pc:   0x421bc0, physical addr:    0x21bc0
9658000: system.cpu.l1i.prefetcher: Created FT entry with:   0x421bc0
9658000: system.cpu.l1i.prefetcher: CONGRATS: SUCCESS in inserting new FT entry found!!
9760000: system.cpu.l1i.prefetcher: INSERTENTRY(): spatio_region:       0X44, pc:   0x422400, physical addr:    0x22400
9760000: system.cpu.l1i.prefetcher: Created FT entry with:   0x422400
9760000: system.cpu.l1i.prefetcher: CONGRATS: SUCCESS in inserting new FT entry found!!
9851000: system.cpu.l1i.prefetcher: INSERTENTRY(): spatio_region:       0XDC, pc:   0x46e1c0, physical addr:    0x6e1c0
9851000: system.cpu.l1i.prefetcher: Created FT entry with:   0x46e1c0
9851000: system.cpu.l1i.prefetcher: CONGRATS: SUCCESS in inserting new FT entry found!!
9928000: system.cpu.l1i.prefetcher: INSERTENTRY(): spatio_region:       0XDC, pc:   0x46e200, physical addr:    0x6e200
9928000: system.cpu.l1i.prefetcher: Created FT entry with:   0x46e200
9928000: system.cpu.l1i.prefetcher: CONGRATS: SUCCESS in inserting new FT entry found!!
10002000: system.cpu.l1d.prefetcher: Updated AGT entry with:          0
10003000: system.cpu.l1d.prefetcher: Updated AGT entry with:          0
10107000: system.cpu.l1i.prefetcher: INSERTENTRY(): spatio_region:       0X44, pc:   0x4227b0, physical addr:    0x22780
10107000: system.cpu.l1i.prefetcher: Created FT entry with:   0x4227b0
10107000: system.cpu.l1i.prefetcher: CONGRATS: SUCCESS in inserting new FT entry found!!
10171000: system.cpu.l1i.prefetcher: INSERTENTRY(): spatio_region:       0X44, pc:   0x4227c0, physical addr:    0x227c0
10171000: system.cpu.l1i.prefetcher: Created FT entry with:   0x4227c0
10171000: system.cpu.l1i.prefetcher: CONGRATS: SUCCESS in inserting new FT entry found!!
10235000: system.cpu.l1i.prefetcher: INSERTENTRY(): spatio_region:       0X45, pc:   0x422800, physical addr:    0x22800
10235000: system.cpu.l1i.prefetcher: Created FT entry with:   0x422800
10235000: system.cpu.l1i.prefetcher: CONGRATS: SUCCESS in inserting new FT entry found!!
10383000: system.cpu.l1d.prefetcher: Updated AGT entry with:          0
10448000: system.cpu.l1i.prefetcher: INSERTENTRY(): spatio_region:       0XDC, pc:   0x46e100, physical addr:    0x6e100
10448000: system.cpu.l1i.prefetcher: Created FT entry with:   0x46e100
10448000: system.cpu.l1i.prefetcher: CONGRATS: SUCCESS in inserting new FT entry found!!
10512000: system.cpu.l1i.prefetcher: INSERTENTRY(): spatio_region:       0XDC, pc:   0x46e140, physical addr:    0x6e140
10512000: system.cpu.l1i.prefetcher: Created FT entry with:   0x46e140
10512000: system.cpu.l1i.prefetcher: CONGRATS: SUCCESS in inserting new FT entry found!!
10603000: system.cpu.l1i.prefetcher: INSERTENTRY(): spatio_region:       0XDF, pc:   0x46fa10, physical addr:    0x6fa00
10603000: system.cpu.l1i.prefetcher: Created FT entry with:   0x46fa10
10603000: system.cpu.l1i.prefetcher: CONGRATS: SUCCESS in inserting new FT entry found!!
10667000: system.cpu.l1i.prefetcher: INSERTENTRY(): spatio_region:       0XDF, pc:   0x46fa40, physical addr:    0x6fa40
10667000: system.cpu.l1i.prefetcher: Created FT entry with:   0x46fa40
10667000: system.cpu.l1i.prefetcher: CONGRATS: SUCCESS in inserting new FT entry found!!
10731000: system.cpu.l1i.prefetcher: INSERTENTRY(): spatio_region:       0XDF, pc:   0x46fa80, physical addr:    0x6fa80
10731000: system.cpu.l1i.prefetcher: Created FT entry with:   0x46fa80
10731000: system.cpu.l1i.prefetcher: CONGRATS: SUCCESS in inserting new FT entry found!!
10830000: system.cpu.l1i.prefetcher: INSERTENTRY(): spatio_region:       0X44, pc:   0x422740, physical addr:    0x22740
10830000: system.cpu.l1i.prefetcher: Created FT entry with:   0x422740
10830000: system.cpu.l1i.prefetcher: CONGRATS: SUCCESS in inserting new FT entry found!!
10925000: system.cpu.l1i.prefetcher: INSERTENTRY(): spatio_region:       0X45, pc:   0x422840, physical addr:    0x22840
10925000: system.cpu.l1i.prefetcher: Created FT entry with:   0x422840
10925000: system.cpu.l1i.prefetcher: CONGRATS: SUCCESS in inserting new FT entry found!!
10998000: system.cpu.l1d.prefetcher: INSERTENTRY(): spatio_region:      0X17E, pc:   0x402338, physical addr:    0xbf038
10998000: system.cpu.l1d.prefetcher: Created FT entry with:   0x402338
10998000: system.cpu.l1d.prefetcher: CONGRATS: SUCCESS in inserting new FT entry found!!
10999000: system.cpu.l1d.prefetcher: Updated AGT entry with:          0
11138000: system.cpu.l1i.prefetcher: INSERTENTRY(): spatio_region:       0X44, pc:   0x422440, physical addr:    0x22440
11138000: system.cpu.l1i.prefetcher: Created FT entry with:   0x422440
11138000: system.cpu.l1i.prefetcher: CONGRATS: SUCCESS in inserting new FT entry found!!
11280000: system.cpu.l1i.prefetcher: INSERTENTRY(): spatio_region:       0XDC, pc:   0x46e0c0, physical addr:    0x6e0c0
11280000: system.cpu.l1i.prefetcher: Created FT entry with:   0x46e0c0
11280000: system.cpu.l1i.prefetcher: CONGRATS: SUCCESS in inserting new FT entry found!!
11349000: system.cpu.l1i.prefetcher: INSERTENTRY(): spatio_region:       0XDC, pc:   0x46e180, physical addr:    0x6e180
11349000: system.cpu.l1i.prefetcher: Created FT entry with:   0x46e180
11349000: system.cpu.l1i.prefetcher: CONGRATS: SUCCESS in inserting new FT entry found!!
11423000: system.cpu.l1d.prefetcher: Updated AGT entry with:          0
11424000: system.cpu.l1d.prefetcher: Updated AGT entry with:          0
11550000: system.cpu.l1i.prefetcher: INSERTENTRY(): spatio_region:        0X4, pc:   0x40246b, physical addr:     0x2440
11550000: system.cpu.l1i.prefetcher: Created FT entry with:   0x40246b
11550000: system.cpu.l1i.prefetcher: CONGRATS: SUCCESS in inserting new FT entry found!!
11641000: system.cpu.l1i.prefetcher: INSERTENTRY(): spatio_region:        0X4, pc:   0x402480, physical addr:     0x2480
11641000: system.cpu.l1i.prefetcher: Created FT entry with:   0x402480
11641000: system.cpu.l1i.prefetcher: CONGRATS: SUCCESS in inserting new FT entry found!!
11705000: system.cpu.l1i.prefetcher: INSERTENTRY(): spatio_region:        0X5, pc:   0x402ac0, physical addr:     0x2ac0
11705000: system.cpu.l1i.prefetcher: Created FT entry with:   0x402ac0
11705000: system.cpu.l1i.prefetcher: CONGRATS: SUCCESS in inserting new FT entry found!!
11769000: system.cpu.l1i.prefetcher: INSERTENTRY(): spatio_region:        0X5, pc:   0x402b00, physical addr:     0x2b00
11769000: system.cpu.l1i.prefetcher: Created FT entry with:   0x402b00
11769000: system.cpu.l1i.prefetcher: CONGRATS: SUCCESS in inserting new FT entry found!!
11794000: system.cpu.l1d.prefetcher: INSERTENTRY(): spatio_region:      0X182, pc:   0x402ad9, physical addr:    0xc1180
11794000: system.cpu.l1d.prefetcher: Created FT entry with:   0x402ad9
11794000: system.cpu.l1d.prefetcher: CONGRATS: SUCCESS in inserting new FT entry found!!
11833000: system.cpu.l1i.prefetcher: INSERTENTRY(): spatio_region:        0X5, pc:   0x402b40, physical addr:     0x2b40
11833000: system.cpu.l1i.prefetcher: Created FT entry with:   0x402b40
11833000: system.cpu.l1i.prefetcher: CONGRATS: SUCCESS in inserting new FT entry found!!
11900000: system.cpu.l1i.prefetcher: INSERTENTRY(): spatio_region:        0X5, pc:   0x402b80, physical addr:     0x2b80
11900000: system.cpu.l1i.prefetcher: Created FT entry with:   0x402b80
11900000: system.cpu.l1i.prefetcher: CONGRATS: SUCCESS in inserting new FT entry found!!
11901000: system.cpu.l1d.prefetcher: Updated AGT entry with:          0
11964000: system.cpu.l1i.prefetcher: INSERTENTRY(): spatio_region:        0X5, pc:   0x402bc0, physical addr:     0x2bc0
11964000: system.cpu.l1i.prefetcher: Created FT entry with:   0x402bc0
11964000: system.cpu.l1i.prefetcher: CONGRATS: SUCCESS in inserting new FT entry found!!
12040000: system.cpu.l1d.prefetcher: Updated AGT entry with:          0
12041000: system.cpu.l1d.prefetcher: Updated AGT entry with:          0
12111000: system.cpu.l1d.prefetcher: Updated AGT entry with:          0
12112000: system.cpu.l1d.prefetcher: Updated AGT entry with:          0
12182000: system.cpu.l1d.prefetcher: Updated AGT entry with:          0
12183000: system.cpu.l1d.prefetcher: Updated AGT entry with:          0
12253000: system.cpu.l1d.prefetcher: Updated AGT entry with:          0
12254000: system.cpu.l1d.prefetcher: Updated AGT entry with:          0
12324000: system.cpu.l1d.prefetcher: Updated AGT entry with:          0
12325000: system.cpu.l1d.prefetcher: Updated AGT entry with:          0
12395000: system.cpu.l1d.prefetcher: Updated AGT entry with:          0
12461000: system.cpu.l1d.prefetcher: INSERTENTRY(): spatio_region:      0X180, pc:   0x402b3d, physical addr:    0xc0100
12461000: system.cpu.l1d.prefetcher: Created FT entry with:   0x402b3d
12461000: system.cpu.l1d.prefetcher: CONGRATS: SUCCESS in inserting new FT entry found!!
12551000: system.cpu.l1d.prefetcher: INSERTENTRY(): spatio_region:      0X182, pc:   0x402b44, physical addr:    0xc1220
12551000: system.cpu.l1d.prefetcher: Created FT entry with:   0x402b44
12551000: system.cpu.l1d.prefetcher: CONGRATS: SUCCESS in inserting new FT entry found!!
12618000: system.cpu.l1i.prefetcher: INSERTENTRY(): spatio_region:        0X5, pc:   0x402c00, physical addr:     0x2c00
12618000: system.cpu.l1i.prefetcher: Created FT entry with:   0x402c00
12618000: system.cpu.l1i.prefetcher: CONGRATS: SUCCESS in inserting new FT entry found!!
12692000: system.cpu.l1i.prefetcher: INSERTENTRY(): spatio_region:       0X92, pc:   0x449230, physical addr:    0x49200
12692000: system.cpu.l1i.prefetcher: Created FT entry with:   0x449230
12692000: system.cpu.l1i.prefetcher: CONGRATS: SUCCESS in inserting new FT entry found!!
12769000: system.cpu.l1i.prefetcher: INSERTENTRY(): spatio_region:       0X92, pc:   0x449240, physical addr:    0x49240
12769000: system.cpu.l1i.prefetcher: Created FT entry with:   0x449240
12769000: system.cpu.l1i.prefetcher: CONGRATS: SUCCESS in inserting new FT entry found!!
12833000: system.cpu.l1i.prefetcher: INSERTENTRY(): spatio_region:       0X92, pc:   0x449280, physical addr:    0x49280
12833000: system.cpu.l1i.prefetcher: Created FT entry with:   0x449280
12833000: system.cpu.l1i.prefetcher: CONGRATS: SUCCESS in inserting new FT entry found!!
12838000: system.cpu.l1d.prefetcher: INSERTENTRY(): spatio_region:      0X185, pc:   0x44923e, physical addr:    0xc2f38
12838000: system.cpu.l1d.prefetcher: Created FT entry with:   0x44923e
12838000: system.cpu.l1d.prefetcher: CONGRATS: SUCCESS in inserting new FT entry found!!
12897000: system.cpu.l1i.prefetcher: INSERTENTRY(): spatio_region:       0X92, pc:   0x4492c0, physical addr:    0x492c0
12897000: system.cpu.l1i.prefetcher: Created FT entry with:   0x4492c0
12897000: system.cpu.l1i.prefetcher: CONGRATS: SUCCESS in inserting new FT entry found!!
12966000: system.cpu.l1i.prefetcher: INSERTENTRY(): spatio_region:       0X92, pc:   0x449300, physical addr:    0x49300
12966000: system.cpu.l1i.prefetcher: Created FT entry with:   0x449300
12966000: system.cpu.l1i.prefetcher: CONGRATS: SUCCESS in inserting new FT entry found!!
13030000: system.cpu.l1i.prefetcher: INSERTENTRY(): spatio_region:       0XE2, pc:   0x471530, physical addr:    0x71500
13030000: system.cpu.l1i.prefetcher: Created FT entry with:   0x471530
13030000: system.cpu.l1i.prefetcher: CONGRATS: SUCCESS in inserting new FT entry found!!
13094000: system.cpu.l1i.prefetcher: INSERTENTRY(): spatio_region:       0XE2, pc:   0x471540, physical addr:    0x71540
13094000: system.cpu.l1i.prefetcher: Created FT entry with:   0x471540
13094000: system.cpu.l1i.prefetcher: CONGRATS: SUCCESS in inserting new FT entry found!!
13162000: system.cpu.l1i.prefetcher: INSERTENTRY(): spatio_region:       0XE2, pc:   0x471580, physical addr:    0x71580
13162000: system.cpu.l1i.prefetcher: Created FT entry with:   0x471580
13162000: system.cpu.l1i.prefetcher: CONGRATS: SUCCESS in inserting new FT entry found!!
13268000: system.cpu.l1i.prefetcher: INSERTENTRY(): spatio_region:       0X92, pc:   0x449340, physical addr:    0x49340
13268000: system.cpu.l1i.prefetcher: Created FT entry with:   0x449340
13268000: system.cpu.l1i.prefetcher: CONGRATS: SUCCESS in inserting new FT entry found!!
13348000: system.cpu.l1i.prefetcher: INSERTENTRY(): spatio_region:       0XE2, pc:   0x4715c0, physical addr:    0x715c0
13348000: system.cpu.l1i.prefetcher: Created FT entry with:   0x4715c0
13348000: system.cpu.l1i.prefetcher: CONGRATS: SUCCESS in inserting new FT entry found!!
13428000: system.cpu.l1i.prefetcher: INSERTENTRY(): spatio_region:       0X92, pc:   0x449380, physical addr:    0x49380
13428000: system.cpu.l1i.prefetcher: Created FT entry with:   0x449380
13428000: system.cpu.l1i.prefetcher: CONGRATS: SUCCESS in inserting new FT entry found!!
13502000: system.cpu.l1d.prefetcher: INSERTENTRY(): spatio_region:      0X186, pc:   0x402b80, physical addr:    0xc3320
13502000: system.cpu.l1d.prefetcher: Created FT entry with:   0x402b80
13502000: system.cpu.l1d.prefetcher: CONGRATS: SUCCESS in inserting new FT entry found!!
13504000: system.cpu.l1i.prefetcher: INSERTENTRY(): spatio_region:        0X5, pc:   0x402c40, physical addr:     0x2c40
13504000: system.cpu.l1i.prefetcher: Created FT entry with:   0x402c40
13504000: system.cpu.l1i.prefetcher: CONGRATS: SUCCESS in inserting new FT entry found!!
13583000: system.cpu.l1d.prefetcher: INSERTENTRY(): spatio_region:      0X182, pc:   0x402bd2, physical addr:    0xc1670
13583000: system.cpu.l1d.prefetcher: Created FT entry with:   0x402bd2
13583000: system.cpu.l1d.prefetcher: CONGRATS: SUCCESS in inserting new FT entry found!!
13584000: system.cpu.l1d.prefetcher: Updated AGT entry with:          0
13600000: system.cpu.l1i.prefetcher: INSERTENTRY(): spatio_region:        0X2, pc:   0x401060, physical addr:     0x1040
13600000: system.cpu.l1i.prefetcher: Created FT entry with:   0x401060
13600000: system.cpu.l1i.prefetcher: CONGRATS: SUCCESS in inserting new FT entry found!!
13646000: system.cpu.l1d.prefetcher: Updated AGT entry with:          0
13691000: system.cpu.l1i.prefetcher: INSERTENTRY(): spatio_region:        0X2, pc:   0x401080, physical addr:     0x1080
13691000: system.cpu.l1i.prefetcher: Created FT entry with:   0x401080
13691000: system.cpu.l1i.prefetcher: CONGRATS: SUCCESS in inserting new FT entry found!!
13755000: system.cpu.l1i.prefetcher: INSERTENTRY(): spatio_region:       0X8B, pc:   0x445a40, physical addr:    0x45a40
13755000: system.cpu.l1i.prefetcher: Created FT entry with:   0x445a40
13755000: system.cpu.l1i.prefetcher: CONGRATS: SUCCESS in inserting new FT entry found!!
13846000: system.cpu.l1i.prefetcher: INSERTENTRY(): spatio_region:       0X8B, pc:   0x445a80, physical addr:    0x45a80
13846000: system.cpu.l1i.prefetcher: Created FT entry with:   0x445a80
13846000: system.cpu.l1i.prefetcher: CONGRATS: SUCCESS in inserting new FT entry found!!
13855000: system.cpu.l1d.prefetcher: INSERTENTRY(): spatio_region:      0X178, pc:   0x445a5b, physical addr:    0xbc0c0
13855000: system.cpu.l1d.prefetcher: Created FT entry with:   0x445a5b
13855000: system.cpu.l1d.prefetcher: CONGRATS: SUCCESS in inserting new FT entry found!!
13856000: system.cpu.l1d.prefetcher: Updated AGT entry with:          0
13910000: system.cpu.l1i.prefetcher: INSERTENTRY(): spatio_region:       0X8B, pc:   0x445ac0, physical addr:    0x45ac0
13910000: system.cpu.l1i.prefetcher: Created FT entry with:   0x445ac0
13910000: system.cpu.l1i.prefetcher: CONGRATS: SUCCESS in inserting new FT entry found!!
13980000: system.cpu.l1d.prefetcher: INSERTENTRY(): spatio_region:      0X18D, pc:   0x445a63, physical addr:    0xc6820
13980000: system.cpu.l1d.prefetcher: Created FT entry with:   0x445a63
13980000: system.cpu.l1d.prefetcher: CONGRATS: SUCCESS in inserting new FT entry found!!
13981000: system.cpu.l1d.prefetcher: INSERTENTRY(): spatio_region:      0X18D, pc:   0x445a63, physical addr:    0xc6828
13981000: system.cpu.l1d.prefetcher: Created FT entry with:   0x445a63
13981000: system.cpu.l1d.prefetcher: CONGRATS: SUCCESS in inserting new FT entry found!!
13983000: system.cpu.l1i.prefetcher: INSERTENTRY(): spatio_region:       0X8B, pc:   0x445b00, physical addr:    0x45b00
13983000: system.cpu.l1i.prefetcher: Created FT entry with:   0x445b00
13983000: system.cpu.l1i.prefetcher: CONGRATS: SUCCESS in inserting new FT entry found!!
14067000: system.cpu.l1i.prefetcher: INSERTENTRY(): spatio_region:        0X5, pc:   0x402c80, physical addr:     0x2c80
14067000: system.cpu.l1i.prefetcher: Created FT entry with:   0x402c80
14067000: system.cpu.l1i.prefetcher: CONGRATS: SUCCESS in inserting new FT entry found!!
14072000: system.cpu.l1d.prefetcher: INSERTENTRY(): spatio_region:      0X18D, pc:   0x402c05, physical addr:    0xc6888
14072000: system.cpu.l1d.prefetcher: Created FT entry with:   0x402c05
14072000: system.cpu.l1d.prefetcher: CONGRATS: SUCCESS in inserting new FT entry found!!
14075000: system.cpu.l1d.prefetcher: Updated AGT entry with:          0
14165000: system.cpu.l1i.prefetcher: INSERTENTRY(): spatio_region:        0X5, pc:   0x402cc0, physical addr:     0x2cc0
14165000: system.cpu.l1i.prefetcher: Created FT entry with:   0x402cc0
14165000: system.cpu.l1i.prefetcher: CONGRATS: SUCCESS in inserting new FT entry found!!
14237000: system.cpu.l1i.prefetcher: INSERTENTRY(): spatio_region:        0X5, pc:   0x402d00, physical addr:     0x2d00
14237000: system.cpu.l1i.prefetcher: Created FT entry with:   0x402d00
14237000: system.cpu.l1i.prefetcher: CONGRATS: SUCCESS in inserting new FT entry found!!
14243000: system.cpu.l1d.prefetcher: Updated AGT entry with:          0
14252000: system.cpu.l1d.prefetcher: INSERTENTRY(): spatio_region:      0X184, pc:   0x402c6f, physical addr:    0xc22b8
14252000: system.cpu.l1d.prefetcher: Created FT entry with:   0x402c6f
14252000: system.cpu.l1d.prefetcher: CONGRATS: SUCCESS in inserting new FT entry found!!
14337000: system.cpu.l1i.prefetcher: INSERTENTRY(): spatio_region:        0X5, pc:   0x402d40, physical addr:     0x2d40
14337000: system.cpu.l1i.prefetcher: Created FT entry with:   0x402d40
14337000: system.cpu.l1i.prefetcher: CONGRATS: SUCCESS in inserting new FT entry found!!
14432000: system.cpu.l1i.prefetcher: INSERTENTRY(): spatio_region:        0X4, pc:   0x4024c0, physical addr:     0x24c0
14432000: system.cpu.l1i.prefetcher: Created FT entry with:   0x4024c0
14432000: system.cpu.l1i.prefetcher: CONGRATS: SUCCESS in inserting new FT entry found!!
14438000: system.cpu.l1d.prefetcher: Updated AGT entry with:          0
14496000: system.cpu.l1i.prefetcher: INSERTENTRY(): spatio_region:        0X4, pc:   0x4026ee, physical addr:     0x26c0
14496000: system.cpu.l1i.prefetcher: Created FT entry with:   0x4026ee
14496000: system.cpu.l1i.prefetcher: CONGRATS: SUCCESS in inserting new FT entry found!!
14560000: system.cpu.l1i.prefetcher: INSERTENTRY(): spatio_region:        0X4, pc:   0x402700, physical addr:     0x2700
14560000: system.cpu.l1i.prefetcher: Created FT entry with:   0x402700
14560000: system.cpu.l1i.prefetcher: CONGRATS: SUCCESS in inserting new FT entry found!!
14624000: system.cpu.l1i.prefetcher: INSERTENTRY(): spatio_region:       0X9C, pc:   0x44e310, physical addr:    0x4e300
14624000: system.cpu.l1i.prefetcher: Created FT entry with:   0x44e310
14624000: system.cpu.l1i.prefetcher: CONGRATS: SUCCESS in inserting new FT entry found!!
14715000: system.cpu.l1i.prefetcher: INSERTENTRY(): spatio_region:       0X9C, pc:   0x44e340, physical addr:    0x4e340
14715000: system.cpu.l1i.prefetcher: Created FT entry with:   0x44e340
14715000: system.cpu.l1i.prefetcher: CONGRATS: SUCCESS in inserting new FT entry found!!
14731000: system.cpu.l1d.prefetcher: INSERTENTRY(): spatio_region:      0X189, pc:   0x44e324, physical addr:    0xc4b28
14731000: system.cpu.l1d.prefetcher: Created FT entry with:   0x44e324
14731000: system.cpu.l1d.prefetcher: CONGRATS: SUCCESS in inserting new FT entry found!!
14779000: system.cpu.l1i.prefetcher: INSERTENTRY(): spatio_region:       0XE2, pc:   0x4712e0, physical addr:    0x712c0
14779000: system.cpu.l1i.prefetcher: Created FT entry with:   0x4712e0
14779000: system.cpu.l1i.prefetcher: CONGRATS: SUCCESS in inserting new FT entry found!!
14843000: system.cpu.l1i.prefetcher: INSERTENTRY(): spatio_region:       0XE2, pc:   0x471300, physical addr:    0x71300
14843000: system.cpu.l1i.prefetcher: Created FT entry with:   0x471300
14843000: system.cpu.l1i.prefetcher: CONGRATS: SUCCESS in inserting new FT entry found!!
14911000: system.cpu.l1i.prefetcher: INSERTENTRY(): spatio_region:       0XE2, pc:   0x471340, physical addr:    0x71340
14911000: system.cpu.l1i.prefetcher: Created FT entry with:   0x471340
14911000: system.cpu.l1i.prefetcher: CONGRATS: SUCCESS in inserting new FT entry found!!
14979000: system.cpu.l1i.prefetcher: INSERTENTRY(): spatio_region:       0X9C, pc:   0x44e380, physical addr:    0x4e380
14979000: system.cpu.l1i.prefetcher: Created FT entry with:   0x44e380
14979000: system.cpu.l1i.prefetcher: CONGRATS: SUCCESS in inserting new FT entry found!!
14983000: system.cpu.l1d.prefetcher: Updated AGT entry with:          0
15043000: system.cpu.l1i.prefetcher: INSERTENTRY(): spatio_region:       0X9C, pc:   0x44e3c0, physical addr:    0x4e3c0
15043000: system.cpu.l1i.prefetcher: Created FT entry with:   0x44e3c0
15043000: system.cpu.l1i.prefetcher: CONGRATS: SUCCESS in inserting new FT entry found!!
15118000: system.cpu.l1i.prefetcher: INSERTENTRY(): spatio_region:       0X9C, pc:   0x44e400, physical addr:    0x4e400
15118000: system.cpu.l1i.prefetcher: Created FT entry with:   0x44e400
15118000: system.cpu.l1i.prefetcher: CONGRATS: SUCCESS in inserting new FT entry found!!
15300000: system.cpu.l1i.prefetcher: INSERTENTRY(): spatio_region:        0X4, pc:   0x402740, physical addr:     0x2740
15300000: system.cpu.l1i.prefetcher: Created FT entry with:   0x402740
15300000: system.cpu.l1i.prefetcher: CONGRATS: SUCCESS in inserting new FT entry found!!
15368000: system.cpu.l1i.prefetcher: INSERTENTRY(): spatio_region:        0X4, pc:   0x402500, physical addr:     0x2500
15368000: system.cpu.l1i.prefetcher: Created FT entry with:   0x402500
15368000: system.cpu.l1i.prefetcher: CONGRATS: SUCCESS in inserting new FT entry found!!
15371000: system.cpu.l1d.prefetcher: INSERTENTRY(): spatio_region:      0X17D, pc:   0x4024a0, physical addr:    0xbef80
15371000: system.cpu.l1d.prefetcher: Created FT entry with:   0x4024a0
15371000: system.cpu.l1d.prefetcher: CONGRATS: SUCCESS in inserting new FT entry found!!
15432000: system.cpu.l1i.prefetcher: INSERTENTRY(): spatio_region:        0X4, pc:   0x402540, physical addr:     0x2540
15432000: system.cpu.l1i.prefetcher: Created FT entry with:   0x402540
15432000: system.cpu.l1i.prefetcher: CONGRATS: SUCCESS in inserting new FT entry found!!
15527000: system.cpu.l1i.prefetcher: INSERTENTRY(): spatio_region:        0X4, pc:   0x402580, physical addr:     0x2580
15527000: system.cpu.l1i.prefetcher: Created FT entry with:   0x402580
15527000: system.cpu.l1i.prefetcher: CONGRATS: SUCCESS in inserting new FT entry found!!
15593000: system.cpu.l1i.prefetcher: INSERTENTRY(): spatio_region:       0X9C, pc:   0x44e440, physical addr:    0x4e440
15593000: system.cpu.l1i.prefetcher: Created FT entry with:   0x44e440
15593000: system.cpu.l1i.prefetcher: CONGRATS: SUCCESS in inserting new FT entry found!!
15912000: system.cpu.l1i.prefetcher: INSERTENTRY(): spatio_region:       0X9C, pc:   0x44e480, physical addr:    0x4e480
15912000: system.cpu.l1i.prefetcher: Created FT entry with:   0x44e480
15912000: system.cpu.l1i.prefetcher: CONGRATS: SUCCESS in inserting new FT entry found!!
15976000: system.cpu.l1i.prefetcher: INSERTENTRY(): spatio_region:       0X9C, pc:   0x44e4c0, physical addr:    0x4e4c0
15976000: system.cpu.l1i.prefetcher: Created FT entry with:   0x44e4c0
15976000: system.cpu.l1i.prefetcher: CONGRATS: SUCCESS in inserting new FT entry found!!
15981000: system.cpu.l1d.prefetcher: INSERTENTRY(): spatio_region:      0X183, pc:   0x44e480, physical addr:    0xc1a68
15981000: system.cpu.l1d.prefetcher: Created FT entry with:   0x44e480
15981000: system.cpu.l1d.prefetcher: CONGRATS: SUCCESS in inserting new FT entry found!!
16040000: system.cpu.l1i.prefetcher: INSERTENTRY(): spatio_region:       0X9C, pc:   0x44e500, physical addr:    0x4e500
16040000: system.cpu.l1i.prefetcher: Created FT entry with:   0x44e500
16040000: system.cpu.l1i.prefetcher: CONGRATS: SUCCESS in inserting new FT entry found!!
16139000: system.cpu.l1i.prefetcher: INSERTENTRY(): spatio_region:       0X99, pc:   0x44c8c0, physical addr:    0x4c8c0
16139000: system.cpu.l1i.prefetcher: Created FT entry with:   0x44c8c0
16139000: system.cpu.l1i.prefetcher: CONGRATS: SUCCESS in inserting new FT entry found!!
16149000: system.cpu.l1d.prefetcher: Updated AGT entry with:          0
16216000: system.cpu.l1i.prefetcher: INSERTENTRY(): spatio_region:       0XF7, pc:   0x47bbf0, physical addr:    0x7bbc0
16216000: system.cpu.l1i.prefetcher: Created FT entry with:   0x47bbf0
16216000: system.cpu.l1i.prefetcher: CONGRATS: SUCCESS in inserting new FT entry found!!
16293000: system.cpu.l1i.prefetcher: INSERTENTRY(): spatio_region:       0XF7, pc:   0x47bc00, physical addr:    0x7bc00
16293000: system.cpu.l1i.prefetcher: Created FT entry with:   0x47bc00
16293000: system.cpu.l1i.prefetcher: CONGRATS: SUCCESS in inserting new FT entry found!!
16357000: system.cpu.l1i.prefetcher: INSERTENTRY(): spatio_region:       0XF7, pc:   0x47bc40, physical addr:    0x7bc40
16357000: system.cpu.l1i.prefetcher: Created FT entry with:   0x47bc40
16357000: system.cpu.l1i.prefetcher: CONGRATS: SUCCESS in inserting new FT entry found!!
16426000: system.cpu.l1d.prefetcher: INSERTENTRY(): spatio_region:      0X18F, pc:   0x47bc01, physical addr:    0xc7c58
16426000: system.cpu.l1d.prefetcher: Created FT entry with:   0x47bc01
16426000: system.cpu.l1d.prefetcher: CONGRATS: SUCCESS in inserting new FT entry found!!
16427000: system.cpu.l1i.prefetcher: INSERTENTRY(): spatio_region:       0XF7, pc:   0x47bc80, physical addr:    0x7bc80
16427000: system.cpu.l1i.prefetcher: Created FT entry with:   0x47bc80
16427000: system.cpu.l1i.prefetcher: CONGRATS: SUCCESS in inserting new FT entry found!!
16522000: system.cpu.l1i.prefetcher: INSERTENTRY(): spatio_region:       0XF7, pc:   0x47bcc0, physical addr:    0x7bcc0
16522000: system.cpu.l1i.prefetcher: Created FT entry with:   0x47bcc0
16522000: system.cpu.l1i.prefetcher: CONGRATS: SUCCESS in inserting new FT entry found!!
16606000: system.cpu.l1d.prefetcher: Updated AGT entry with:          0
16670000: system.cpu.l1i.prefetcher: INSERTENTRY(): spatio_region:       0XF7, pc:   0x47bd00, physical addr:    0x7bd00
16670000: system.cpu.l1i.prefetcher: Created FT entry with:   0x47bd00
16670000: system.cpu.l1i.prefetcher: CONGRATS: SUCCESS in inserting new FT entry found!!
16900000: system.cpu.l1i.prefetcher: INSERTENTRY(): spatio_region:       0XF7, pc:   0x47bd40, physical addr:    0x7bd40
16900000: system.cpu.l1i.prefetcher: Created FT entry with:   0x47bd40
16900000: system.cpu.l1i.prefetcher: CONGRATS: SUCCESS in inserting new FT entry found!!
16964000: system.cpu.l1i.prefetcher: INSERTENTRY(): spatio_region:       0X3D, pc:   0x41eff0, physical addr:    0x1efc0
16964000: system.cpu.l1i.prefetcher: Created FT entry with:   0x41eff0
16964000: system.cpu.l1i.prefetcher: CONGRATS: SUCCESS in inserting new FT entry found!!
17041000: system.cpu.l1i.prefetcher: INSERTENTRY(): spatio_region:       0X3E, pc:   0x41f000, physical addr:    0x1f000
17041000: system.cpu.l1i.prefetcher: Created FT entry with:   0x41f000
17041000: system.cpu.l1i.prefetcher: CONGRATS: SUCCESS in inserting new FT entry found!!
17047000: system.cpu.l1d.prefetcher: Updated AGT entry with:          0
17105000: system.cpu.l1i.prefetcher: INSERTENTRY(): spatio_region:       0X3E, pc:   0x41f040, physical addr:    0x1f040
17105000: system.cpu.l1i.prefetcher: Created FT entry with:   0x41f040
17105000: system.cpu.l1i.prefetcher: CONGRATS: SUCCESS in inserting new FT entry found!!
17112000: system.cpu.l1d.prefetcher: Updated AGT entry with:          0
17113000: system.cpu.l1d.prefetcher: Updated AGT entry with:          0
17169000: system.cpu.l1i.prefetcher: INSERTENTRY(): spatio_region:       0X3E, pc:   0x41f160, physical addr:    0x1f140
17169000: system.cpu.l1i.prefetcher: Created FT entry with:   0x41f160
17169000: system.cpu.l1i.prefetcher: CONGRATS: SUCCESS in inserting new FT entry found!!
17233000: system.cpu.l1i.prefetcher: INSERTENTRY(): spatio_region:       0X3E, pc:   0x41f180, physical addr:    0x1f180
17233000: system.cpu.l1i.prefetcher: Created FT entry with:   0x41f180
17233000: system.cpu.l1i.prefetcher: CONGRATS: SUCCESS in inserting new FT entry found!!
17297000: system.cpu.l1i.prefetcher: INSERTENTRY(): spatio_region:       0X3D, pc:   0x41ea30, physical addr:    0x1ea00
17297000: system.cpu.l1i.prefetcher: Created FT entry with:   0x41ea30
17297000: system.cpu.l1i.prefetcher: CONGRATS: SUCCESS in inserting new FT entry found!!
17361000: system.cpu.l1i.prefetcher: INSERTENTRY(): spatio_region:       0X3D, pc:   0x41ea40, physical addr:    0x1ea40
17361000: system.cpu.l1i.prefetcher: Created FT entry with:   0x41ea40
17361000: system.cpu.l1i.prefetcher: CONGRATS: SUCCESS in inserting new FT entry found!!
17366000: system.cpu.l1d.prefetcher: INSERTENTRY(): spatio_region:      0X180, pc:   0x41ea34, physical addr:    0xc06e4
17366000: system.cpu.l1d.prefetcher: Created FT entry with:   0x41ea34
17366000: system.cpu.l1d.prefetcher: CONGRATS: SUCCESS in inserting new FT entry found!!
17425000: system.cpu.l1i.prefetcher: INSERTENTRY(): spatio_region:       0X3D, pc:   0x41ea80, physical addr:    0x1ea80
17425000: system.cpu.l1i.prefetcher: Created FT entry with:   0x41ea80
17425000: system.cpu.l1i.prefetcher: CONGRATS: SUCCESS in inserting new FT entry found!!
17489000: system.cpu.l1i.prefetcher: INSERTENTRY(): spatio_region:       0X3D, pc:   0x41eb80, physical addr:    0x1eb80
17489000: system.cpu.l1i.prefetcher: Created FT entry with:   0x41eb80
17489000: system.cpu.l1i.prefetcher: CONGRATS: SUCCESS in inserting new FT entry found!!
17553000: system.cpu.l1i.prefetcher: INSERTENTRY(): spatio_region:       0X3D, pc:   0x41ebc0, physical addr:    0x1ebc0
17553000: system.cpu.l1i.prefetcher: Created FT entry with:   0x41ebc0
17553000: system.cpu.l1i.prefetcher: CONGRATS: SUCCESS in inserting new FT entry found!!
17617000: system.cpu.l1i.prefetcher: INSERTENTRY(): spatio_region:       0X3C, pc:   0x41e000, physical addr:    0x1e000
17617000: system.cpu.l1i.prefetcher: Created FT entry with:   0x41e000
17617000: system.cpu.l1i.prefetcher: CONGRATS: SUCCESS in inserting new FT entry found!!
17681000: system.cpu.l1i.prefetcher: INSERTENTRY(): spatio_region:       0X3C, pc:   0x41e040, physical addr:    0x1e040
17681000: system.cpu.l1i.prefetcher: Created FT entry with:   0x41e040
17681000: system.cpu.l1i.prefetcher: CONGRATS: SUCCESS in inserting new FT entry found!!
17696000: system.cpu.l1d.prefetcher: Updated AGT entry with:          0
17745000: system.cpu.l1i.prefetcher: INSERTENTRY(): spatio_region:       0X3C, pc:   0x41e080, physical addr:    0x1e080
17745000: system.cpu.l1i.prefetcher: Created FT entry with:   0x41e080
17745000: system.cpu.l1i.prefetcher: CONGRATS: SUCCESS in inserting new FT entry found!!
17756000: system.cpu.l1d.prefetcher: INSERTENTRY(): spatio_region:      0X181, pc:   0x41e04d, physical addr:    0xc0818
17756000: system.cpu.l1d.prefetcher: Created FT entry with:   0x41e04d
17756000: system.cpu.l1d.prefetcher: CONGRATS: SUCCESS in inserting new FT entry found!!
17758000: system.cpu.l1d.prefetcher: INSERTENTRY(): spatio_region:      0X181, pc:   0x41e04d, physical addr:    0xc0810
17758000: system.cpu.l1d.prefetcher: Created FT entry with:   0x41e04d
17758000: system.cpu.l1d.prefetcher: CONGRATS: SUCCESS in inserting new FT entry found!!
17814000: system.cpu.l1i.prefetcher: INSERTENTRY(): spatio_region:       0X3C, pc:   0x41e0c0, physical addr:    0x1e0c0
17814000: system.cpu.l1i.prefetcher: Created FT entry with:   0x41e0c0
17814000: system.cpu.l1i.prefetcher: CONGRATS: SUCCESS in inserting new FT entry found!!
17888000: system.cpu.l1i.prefetcher: INSERTENTRY(): spatio_region:       0X3C, pc:   0x41e100, physical addr:    0x1e100
17888000: system.cpu.l1i.prefetcher: Created FT entry with:   0x41e100
17888000: system.cpu.l1i.prefetcher: CONGRATS: SUCCESS in inserting new FT entry found!!
17965000: system.cpu.l1d.prefetcher: INSERTENTRY(): spatio_region:      0X181, pc:   0x41e04d, physical addr:    0xc0848
17965000: system.cpu.l1d.prefetcher: Created FT entry with:   0x41e04d
17965000: system.cpu.l1d.prefetcher: CONGRATS: SUCCESS in inserting new FT entry found!!
17966000: system.cpu.l1d.prefetcher: Updated AGT entry with:          0
18069000: system.cpu.l1d.prefetcher: Updated AGT entry with:          0
18070000: system.cpu.l1d.prefetcher: Updated AGT entry with:          0
18173000: system.cpu.l1d.prefetcher: Updated AGT entry with:          0
18174000: system.cpu.l1d.prefetcher: Updated AGT entry with:          0
18277000: system.cpu.l1d.prefetcher: Updated AGT entry with:          0
18278000: system.cpu.l1d.prefetcher: Updated AGT entry with:          0
18381000: system.cpu.l1d.prefetcher: Updated AGT entry with:          0
18382000: system.cpu.l1d.prefetcher: Updated AGT entry with:          0
18485000: system.cpu.l1d.prefetcher: Updated AGT entry with:          0
18486000: system.cpu.l1d.prefetcher: Updated AGT entry with:          0
18589000: system.cpu.l1d.prefetcher: Updated AGT entry with:          0
18590000: system.cpu.l1d.prefetcher: Updated AGT entry with:          0
18693000: system.cpu.l1d.prefetcher: Updated AGT entry with:          0
18694000: system.cpu.l1d.prefetcher: INSERTENTRY(): spatio_region:      0X181, pc:   0x41e04d, physical addr:    0xc0a00
18694000: system.cpu.l1d.prefetcher: Created FT entry with:   0x41e04d
18694000: system.cpu.l1d.prefetcher: CONGRATS: SUCCESS in inserting new FT entry found!!
18797000: system.cpu.l1d.prefetcher: INSERTENTRY(): spatio_region:      0X181, pc:   0x41e04d, physical addr:    0xc0a48
18797000: system.cpu.l1d.prefetcher: Created FT entry with:   0x41e04d
18797000: system.cpu.l1d.prefetcher: CONGRATS: SUCCESS in inserting new FT entry found!!
18798000: system.cpu.l1d.prefetcher: INSERTENTRY(): spatio_region:      0X181, pc:   0x41e04d, physical addr:    0xc0a40
18798000: system.cpu.l1d.prefetcher: Created FT entry with:   0x41e04d
18798000: system.cpu.l1d.prefetcher: CONGRATS: SUCCESS in inserting new FT entry found!!
18901000: system.cpu.l1d.prefetcher: INSERTENTRY(): spatio_region:      0X181, pc:   0x41e04d, physical addr:    0xc0a88
18901000: system.cpu.l1d.prefetcher: Created FT entry with:   0x41e04d
18901000: system.cpu.l1d.prefetcher: CONGRATS: SUCCESS in inserting new FT entry found!!
18902000: system.cpu.l1d.prefetcher: INSERTENTRY(): spatio_region:      0X181, pc:   0x41e04d, physical addr:    0xc0a80
18902000: system.cpu.l1d.prefetcher: Created FT entry with:   0x41e04d
18902000: system.cpu.l1d.prefetcher: CONGRATS: SUCCESS in inserting new FT entry found!!
19005000: system.cpu.l1d.prefetcher: INSERTENTRY(): spatio_region:      0X181, pc:   0x41e04d, physical addr:    0xc0ac8
19005000: system.cpu.l1d.prefetcher: Created FT entry with:   0x41e04d
19005000: system.cpu.l1d.prefetcher: CONGRATS: SUCCESS in inserting new FT entry found!!
19006000: system.cpu.l1d.prefetcher: Updated AGT entry with:          0
19109000: system.cpu.l1d.prefetcher: Updated AGT entry with:          0
19110000: system.cpu.l1d.prefetcher: Updated AGT entry with:          0
19213000: system.cpu.l1d.prefetcher: Updated AGT entry with:          0
19214000: system.cpu.l1d.prefetcher: Updated AGT entry with:          0
19330000: system.cpu.l1d.prefetcher: Updated AGT entry with:          0
19331000: system.cpu.l1d.prefetcher: Updated AGT entry with:          0
19434000: system.cpu.l1d.prefetcher: Updated AGT entry with:          0
19435000: system.cpu.l1d.prefetcher: Updated AGT entry with:          0
19538000: system.cpu.l1d.prefetcher: Updated AGT entry with:          0
19539000: system.cpu.l1d.prefetcher: Updated AGT entry with:          0
19642000: system.cpu.l1d.prefetcher: Updated AGT entry with:          0
19643000: system.cpu.l1d.prefetcher: Updated AGT entry with:          0
19746000: system.cpu.l1d.prefetcher: Updated AGT entry with:          0
19747000: system.cpu.l1d.prefetcher: Updated AGT entry with:          0
19850000: system.cpu.l1d.prefetcher: Updated AGT entry with:          0
19851000: system.cpu.l1d.prefetcher: Updated AGT entry with:          0
19954000: system.cpu.l1d.prefetcher: Updated AGT entry with:          0
19955000: system.cpu.l1d.prefetcher: Updated AGT entry with:          0
20058000: system.cpu.l1d.prefetcher: Updated AGT entry with:          0
20059000: system.cpu.l1d.prefetcher: INSERTENTRY(): spatio_region:      0X181, pc:   0x41e04d, physical addr:    0xc0d40
20059000: system.cpu.l1d.prefetcher: Created FT entry with:   0x41e04d
20059000: system.cpu.l1d.prefetcher: CONGRATS: SUCCESS in inserting new FT entry found!!
20162000: system.cpu.l1d.prefetcher: INSERTENTRY(): spatio_region:      0X181, pc:   0x41e04d, physical addr:    0xc0d88
20162000: system.cpu.l1d.prefetcher: Created FT entry with:   0x41e04d
20162000: system.cpu.l1d.prefetcher: CONGRATS: SUCCESS in inserting new FT entry found!!
20163000: system.cpu.l1d.prefetcher: INSERTENTRY(): spatio_region:      0X181, pc:   0x41e04d, physical addr:    0xc0d80
20163000: system.cpu.l1d.prefetcher: Created FT entry with:   0x41e04d
20163000: system.cpu.l1d.prefetcher: CONGRATS: SUCCESS in inserting new FT entry found!!
20266000: system.cpu.l1d.prefetcher: INSERTENTRY(): spatio_region:      0X181, pc:   0x41e04d, physical addr:    0xc0dc8
20266000: system.cpu.l1d.prefetcher: Created FT entry with:   0x41e04d
20266000: system.cpu.l1d.prefetcher: CONGRATS: SUCCESS in inserting new FT entry found!!
20267000: system.cpu.l1d.prefetcher: INSERTENTRY(): spatio_region:      0X181, pc:   0x41e04d, physical addr:    0xc0dc0
20267000: system.cpu.l1d.prefetcher: Created FT entry with:   0x41e04d
20267000: system.cpu.l1d.prefetcher: CONGRATS: SUCCESS in inserting new FT entry found!!
20370000: system.cpu.l1d.prefetcher: INSERTENTRY(): spatio_region:      0X181, pc:   0x41e04d, physical addr:    0xc0e08
20370000: system.cpu.l1d.prefetcher: Created FT entry with:   0x41e04d
20370000: system.cpu.l1d.prefetcher: CONGRATS: SUCCESS in inserting new FT entry found!!
20371000: system.cpu.l1d.prefetcher: INSERTENTRY(): spatio_region:      0X181, pc:   0x41e04d, physical addr:    0xc0e00
20371000: system.cpu.l1d.prefetcher: Created FT entry with:   0x41e04d
20371000: system.cpu.l1d.prefetcher: CONGRATS: SUCCESS in inserting new FT entry found!!
20474000: system.cpu.l1d.prefetcher: INSERTENTRY(): spatio_region:      0X181, pc:   0x41e04d, physical addr:    0xc0e48
20474000: system.cpu.l1d.prefetcher: Created FT entry with:   0x41e04d
20474000: system.cpu.l1d.prefetcher: CONGRATS: SUCCESS in inserting new FT entry found!!
20475000: system.cpu.l1d.prefetcher: INSERTENTRY(): spatio_region:      0X181, pc:   0x41e04d, physical addr:    0xc0e40
20475000: system.cpu.l1d.prefetcher: Created FT entry with:   0x41e04d
20475000: system.cpu.l1d.prefetcher: CONGRATS: SUCCESS in inserting new FT entry found!!
20578000: system.cpu.l1d.prefetcher: INSERTENTRY(): spatio_region:      0X181, pc:   0x41e04d, physical addr:    0xc0e88
20578000: system.cpu.l1d.prefetcher: Created FT entry with:   0x41e04d
20578000: system.cpu.l1d.prefetcher: CONGRATS: SUCCESS in inserting new FT entry found!!
20579000: system.cpu.l1d.prefetcher: INSERTENTRY(): spatio_region:      0X181, pc:   0x41e04d, physical addr:    0xc0e80
20579000: system.cpu.l1d.prefetcher: Created FT entry with:   0x41e04d
20579000: system.cpu.l1d.prefetcher: CONGRATS: SUCCESS in inserting new FT entry found!!
20682000: system.cpu.l1d.prefetcher: INSERTENTRY(): spatio_region:      0X181, pc:   0x41e04d, physical addr:    0xc0ec8
20682000: system.cpu.l1d.prefetcher: Created FT entry with:   0x41e04d
20682000: system.cpu.l1d.prefetcher: CONGRATS: SUCCESS in inserting new FT entry found!!
20683000: system.cpu.l1d.prefetcher: INSERTENTRY(): spatio_region:      0X181, pc:   0x41e04d, physical addr:    0xc0ec0
20683000: system.cpu.l1d.prefetcher: Created FT entry with:   0x41e04d
20683000: system.cpu.l1d.prefetcher: CONGRATS: SUCCESS in inserting new FT entry found!!
20786000: system.cpu.l1d.prefetcher: INSERTENTRY(): spatio_region:      0X181, pc:   0x41e04d, physical addr:    0xc0f08
20786000: system.cpu.l1d.prefetcher: Created FT entry with:   0x41e04d
20786000: system.cpu.l1d.prefetcher: CONGRATS: SUCCESS in inserting new FT entry found!!
20787000: system.cpu.l1d.prefetcher: INSERTENTRY(): spatio_region:      0X181, pc:   0x41e04d, physical addr:    0xc0f00
20787000: system.cpu.l1d.prefetcher: Created FT entry with:   0x41e04d
20787000: system.cpu.l1d.prefetcher: CONGRATS: SUCCESS in inserting new FT entry found!!
20890000: system.cpu.l1d.prefetcher: INSERTENTRY(): spatio_region:      0X181, pc:   0x41e04d, physical addr:    0xc0f48
20890000: system.cpu.l1d.prefetcher: Created FT entry with:   0x41e04d
20890000: system.cpu.l1d.prefetcher: CONGRATS: SUCCESS in inserting new FT entry found!!
20891000: system.cpu.l1d.prefetcher: INSERTENTRY(): spatio_region:      0X181, pc:   0x41e04d, physical addr:    0xc0f40
[...]
59401000: system.cpu.l1i.prefetcher: CONGRATS: SUCCESS in inserting new FT entry found!!
59467000: system.cpu.l1i.prefetcher: INSERTENTRY(): spatio_region:       0XB8, pc:   0x45c140, physical addr:    0x5c140
59467000: system.cpu.l1i.prefetcher: Created FT entry with:   0x45c140
59467000: system.cpu.l1i.prefetcher: CONGRATS: SUCCESS in inserting new FT entry found!!
59531000: system.cpu.l1i.prefetcher: INSERTENTRY(): spatio_region:       0XB8, pc:   0x45c180, physical addr:    0x5c180
59531000: system.cpu.l1i.prefetcher: Created FT entry with:   0x45c180
59531000: system.cpu.l1i.prefetcher: CONGRATS: SUCCESS in inserting new FT entry found!!
59542000: system.cpu.l1d.prefetcher: INSERTENTRY(): spatio_region:      0X189, pc:   0x45c15d, physical addr:    0xc4dc0
59542000: system.cpu.l1d.prefetcher: Created FT entry with:   0x45c15d
59542000: system.cpu.l1d.prefetcher: CONGRATS: SUCCESS in inserting new FT entry found!!
59548000: system.cpu.l1d.prefetcher: INSERTENTRY(): spatio_region:      0X189, pc:   0x45c173, physical addr:    0xc4dc8
59548000: system.cpu.l1d.prefetcher: Created FT entry with:   0x45c173
59548000: system.cpu.l1d.prefetcher: CONGRATS: SUCCESS in inserting new FT entry found!!
59595000: system.cpu.l1i.prefetcher: INSERTENTRY(): spatio_region:       0XB8, pc:   0x45c1c0, physical addr:    0x5c1c0
59595000: system.cpu.l1i.prefetcher: Created FT entry with:   0x45c1c0
59595000: system.cpu.l1i.prefetcher: CONGRATS: SUCCESS in inserting new FT entry found!!
59665000: system.cpu.l1i.prefetcher: INSERTENTRY(): spatio_region:       0XB8, pc:   0x45c200, physical addr:    0x5c200
59665000: system.cpu.l1i.prefetcher: Created FT entry with:   0x45c200
59665000: system.cpu.l1i.prefetcher: CONGRATS: SUCCESS in inserting new FT entry found!!
59736000: system.cpu.l1d.prefetcher: Updated AGT entry with:          0
59813000: system.cpu.l1d.prefetcher: Updated AGT entry with:          0
59883000: system.cpu.l1i.prefetcher: INSERTENTRY(): spatio_region:        0X4, pc:   0x402600, physical addr:     0x2600
59883000: system.cpu.l1i.prefetcher: Created FT entry with:   0x402600
59883000: system.cpu.l1i.prefetcher: CONGRATS: SUCCESS in inserting new FT entry found!!
59947000: system.cpu.l1i.prefetcher: INSERTENTRY(): spatio_region:        0X2, pc:   0x401730, physical addr:     0x1700
59947000: system.cpu.l1i.prefetcher: Created FT entry with:   0x401730
59947000: system.cpu.l1i.prefetcher: CONGRATS: SUCCESS in inserting new FT entry found!!
60027000: system.cpu.l1i.prefetcher: INSERTENTRY(): spatio_region:        0X3, pc:   0x401d80, physical addr:     0x1d80
60027000: system.cpu.l1i.prefetcher: Created FT entry with:   0x401d80
60027000: system.cpu.l1i.prefetcher: CONGRATS: SUCCESS in inserting new FT entry found!!
60038000: system.cpu.l1d.prefetcher: INSERTENTRY(): spatio_region:      0X17E, pc:   0x401d40, physical addr:    0xbf100
60038000: system.cpu.l1d.prefetcher: Created FT entry with:   0x401d40
60038000: system.cpu.l1d.prefetcher: CONGRATS: SUCCESS in inserting new FT entry found!!
60042000: system.cpu.l1i.prefetcher: INSERTENTRY(): spatio_region:        0X3, pc:   0x401dc0, physical addr:     0x1dc0
60042000: system.cpu.l1i.prefetcher: Created FT entry with:   0x401dc0
60042000: system.cpu.l1i.prefetcher: CONGRATS: SUCCESS in inserting new FT entry found!!
60118000: system.cpu.l1i.prefetcher: INSERTENTRY(): spatio_region:        0X3, pc:   0x401e00, physical addr:     0x1e00
60118000: system.cpu.l1i.prefetcher: Created FT entry with:   0x401e00
60118000: system.cpu.l1i.prefetcher: CONGRATS: SUCCESS in inserting new FT entry found!!
61084000: system.cpu.l1d.prefetcher: Updated AGT entry with:          0
62104000: system.cpu.l1d.prefetcher: Updated AGT entry with:          0
63124000: system.cpu.l1d.prefetcher: Updated AGT entry with:          0
91134000: system.cpu.l1i.prefetcher: INSERTENTRY(): spatio_region:       0X20, pc:   0x410130, physical addr:    0x10100
91134000: system.cpu.l1i.prefetcher: Created FT entry with:   0x410130
91134000: system.cpu.l1i.prefetcher: CONGRATS: SUCCESS in inserting new FT entry found!!
91239000: system.cpu.l1i.prefetcher: INSERTENTRY(): spatio_region:       0X1F, pc:   0x40ff00, physical addr:     0xff00
91239000: system.cpu.l1i.prefetcher: Created FT entry with:   0x40ff00
91239000: system.cpu.l1i.prefetcher: CONGRATS: SUCCESS in inserting new FT entry found!!
91256000: system.cpu.l1d.prefetcher: INSERTENTRY(): spatio_region:      0X17D, pc:   0x40fe8a, physical addr:    0xbefd8
91256000: system.cpu.l1d.prefetcher: Created FT entry with:   0x40fe8a
91256000: system.cpu.l1d.prefetcher: CONGRATS: SUCCESS in inserting new FT entry found!!
91316000: system.cpu.l1i.prefetcher: INSERTENTRY(): spatio_region:       0X1F, pc:   0x40ff40, physical addr:     0xff40
91316000: system.cpu.l1i.prefetcher: Created FT entry with:   0x40ff40
91316000: system.cpu.l1i.prefetcher: CONGRATS: SUCCESS in inserting new FT entry found!!
91399000: system.cpu.l1i.prefetcher: INSERTENTRY(): spatio_region:       0X1F, pc:   0x40ff80, physical addr:     0xff80
91399000: system.cpu.l1i.prefetcher: Created FT entry with:   0x40ff80
91399000: system.cpu.l1i.prefetcher: CONGRATS: SUCCESS in inserting new FT entry found!!
91476000: system.cpu.l1i.prefetcher: INSERTENTRY(): spatio_region:       0X1F, pc:   0x40ffc0, physical addr:     0xffc0
91476000: system.cpu.l1i.prefetcher: Created FT entry with:   0x40ffc0
91476000: system.cpu.l1i.prefetcher: CONGRATS: SUCCESS in inserting new FT entry found!!
91561000: system.cpu.l1i.prefetcher: INSERTENTRY(): spatio_region:        0X2, pc:   0x4016e0, physical addr:     0x16c0
91561000: system.cpu.l1i.prefetcher: Created FT entry with:   0x4016e0
91561000: system.cpu.l1i.prefetcher: CONGRATS: SUCCESS in inserting new FT entry found!!
91643000: system.cpu.l1d.prefetcher: Updated AGT entry with:          0
91746000: system.cpu.l1i.prefetcher: INSERTENTRY(): spatio_region:        0X5, pc:   0x402ec0, physical addr:     0x2ec0
91746000: system.cpu.l1i.prefetcher: Created FT entry with:   0x402ec0
91746000: system.cpu.l1i.prefetcher: CONGRATS: SUCCESS in inserting new FT entry found!!
91867000: system.cpu.l1i.prefetcher: INSERTENTRY(): spatio_region:        0X3, pc:   0x401c20, physical addr:     0x1c00
91867000: system.cpu.l1i.prefetcher: Created FT entry with:   0x401c20
91867000: system.cpu.l1i.prefetcher: CONGRATS: SUCCESS in inserting new FT entry found!!
91921000: system.cpu.l1i.prefetcher: INSERTENTRY(): spatio_region:      0X124, pc:   0x4920d0, physical addr:    0x920c0
91921000: system.cpu.l1i.prefetcher: Created FT entry with:   0x4920d0
91921000: system.cpu.l1i.prefetcher: CONGRATS: SUCCESS in inserting new FT entry found!!
91998000: system.cpu.l1i.prefetcher: INSERTENTRY(): spatio_region:      0X124, pc:   0x492100, physical addr:    0x92100
91998000: system.cpu.l1i.prefetcher: Created FT entry with:   0x492100
91998000: system.cpu.l1i.prefetcher: CONGRATS: SUCCESS in inserting new FT entry found!!
92062000: system.cpu.l1i.prefetcher: INSERTENTRY(): spatio_region:      0X123, pc:   0x491fa0, physical addr:    0x91f80
92062000: system.cpu.l1i.prefetcher: Created FT entry with:   0x491fa0
92062000: system.cpu.l1i.prefetcher: CONGRATS: SUCCESS in inserting new FT entry found!!
92153000: system.cpu.l1i.prefetcher: INSERTENTRY(): spatio_region:      0X123, pc:   0x491fc0, physical addr:    0x91fc0
92153000: system.cpu.l1i.prefetcher: Created FT entry with:   0x491fc0
92153000: system.cpu.l1i.prefetcher: CONGRATS: SUCCESS in inserting new FT entry found!!
92217000: system.cpu.l1i.prefetcher: INSERTENTRY(): spatio_region:      0X124, pc:   0x492000, physical addr:    0x92000
92217000: system.cpu.l1i.prefetcher: Created FT entry with:   0x492000
92217000: system.cpu.l1i.prefetcher: CONGRATS: SUCCESS in inserting new FT entry found!!
92285000: system.cpu.l1i.prefetcher: INSERTENTRY(): spatio_region:      0X124, pc:   0x492040, physical addr:    0x92040
92285000: system.cpu.l1i.prefetcher: Created FT entry with:   0x492040
92285000: system.cpu.l1i.prefetcher: CONGRATS: SUCCESS in inserting new FT entry found!!
92357000: system.cpu.l1i.prefetcher: INSERTENTRY(): spatio_region:      0X124, pc:   0x492080, physical addr:    0x92080
92357000: system.cpu.l1i.prefetcher: Created FT entry with:   0x492080
92357000: system.cpu.l1i.prefetcher: CONGRATS: SUCCESS in inserting new FT entry found!!
92478000: system.cpu.l1i.prefetcher: INSERTENTRY(): spatio_region:      0X128, pc:   0x494570, physical addr:    0x94540
92478000: system.cpu.l1i.prefetcher: Created FT entry with:   0x494570
92478000: system.cpu.l1i.prefetcher: CONGRATS: SUCCESS in inserting new FT entry found!!
92555000: system.cpu.l1i.prefetcher: INSERTENTRY(): spatio_region:      0X128, pc:   0x494580, physical addr:    0x94580
92555000: system.cpu.l1i.prefetcher: Created FT entry with:   0x494580
92555000: system.cpu.l1i.prefetcher: CONGRATS: SUCCESS in inserting new FT entry found!!
92626000: system.cpu.l1i.prefetcher: INSERTENTRY(): spatio_region:       0X20, pc:   0x410000, physical addr:    0x10000
92626000: system.cpu.l1i.prefetcher: Created FT entry with:   0x410000
92626000: system.cpu.l1i.prefetcher: CONGRATS: SUCCESS in inserting new FT entry found!!
92746000: system.cpu.l1i.prefetcher: INSERTENTRY(): spatio_region:       0X20, pc:   0x410040, physical addr:    0x10040
92746000: system.cpu.l1i.prefetcher: Created FT entry with:   0x410040
92746000: system.cpu.l1i.prefetcher: CONGRATS: SUCCESS in inserting new FT entry found!!
92814000: system.cpu.l1i.prefetcher: INSERTENTRY(): spatio_region:       0X20, pc:   0x410080, physical addr:    0x10080
92814000: system.cpu.l1i.prefetcher: Created FT entry with:   0x410080
92814000: system.cpu.l1i.prefetcher: CONGRATS: SUCCESS in inserting new FT entry found!!
92908000: system.cpu.l1i.prefetcher: INSERTENTRY(): spatio_region:       0X20, pc:   0x4100c0, physical addr:    0x100c0
92908000: system.cpu.l1i.prefetcher: Created FT entry with:   0x4100c0
92908000: system.cpu.l1i.prefetcher: CONGRATS: SUCCESS in inserting new FT entry found!!
92930000: system.cpu.l1d.prefetcher: Updated AGT entry with:          0
93022000: system.cpu.l1i.prefetcher: INSERTENTRY(): spatio_region:       0X31, pc:   0x418880, physical addr:    0x18880
93022000: system.cpu.l1i.prefetcher: Created FT entry with:   0x418880
93022000: system.cpu.l1i.prefetcher: CONGRATS: SUCCESS in inserting new FT entry found!!
93099000: system.cpu.l1i.prefetcher: INSERTENTRY(): spatio_region:       0X31, pc:   0x4188c0, physical addr:    0x188c0
93099000: system.cpu.l1i.prefetcher: Created FT entry with:   0x4188c0
93099000: system.cpu.l1i.prefetcher: CONGRATS: SUCCESS in inserting new FT entry found!!
93163000: system.cpu.l1i.prefetcher: INSERTENTRY(): spatio_region:       0X30, pc:   0x418580, physical addr:    0x18580
93163000: system.cpu.l1i.prefetcher: Created FT entry with:   0x418580
93163000: system.cpu.l1i.prefetcher: CONGRATS: SUCCESS in inserting new FT entry found!!
93227000: system.cpu.l1i.prefetcher: INSERTENTRY(): spatio_region:       0X30, pc:   0x4185c0, physical addr:    0x185c0
93227000: system.cpu.l1i.prefetcher: Created FT entry with:   0x4185c0
93227000: system.cpu.l1i.prefetcher: CONGRATS: SUCCESS in inserting new FT entry found!!
93291000: system.cpu.l1i.prefetcher: INSERTENTRY(): spatio_region:       0X30, pc:   0x4187b0, physical addr:    0x18780
93291000: system.cpu.l1i.prefetcher: Created FT entry with:   0x4187b0
93291000: system.cpu.l1i.prefetcher: CONGRATS: SUCCESS in inserting new FT entry found!!
93355000: system.cpu.l1i.prefetcher: INSERTENTRY(): spatio_region:       0X30, pc:   0x4187c0, physical addr:    0x187c0
93355000: system.cpu.l1i.prefetcher: Created FT entry with:   0x4187c0
93355000: system.cpu.l1i.prefetcher: CONGRATS: SUCCESS in inserting new FT entry found!!
93419000: system.cpu.l1i.prefetcher: INSERTENTRY(): spatio_region:       0X31, pc:   0x418800, physical addr:    0x18800
93419000: system.cpu.l1i.prefetcher: Created FT entry with:   0x418800
93419000: system.cpu.l1i.prefetcher: CONGRATS: SUCCESS in inserting new FT entry found!!
93485000: system.cpu.l1i.prefetcher: INSERTENTRY(): spatio_region:       0X30, pc:   0x418600, physical addr:    0x18600
93485000: system.cpu.l1i.prefetcher: Created FT entry with:   0x418600
93485000: system.cpu.l1i.prefetcher: CONGRATS: SUCCESS in inserting new FT entry found!!
93491000: system.cpu.l1d.prefetcher: INSERTENTRY(): spatio_region:      0X185, pc:   0x4185ce, physical addr:    0xc2c58
93491000: system.cpu.l1d.prefetcher: Created FT entry with:   0x4185ce
93491000: system.cpu.l1d.prefetcher: CONGRATS: SUCCESS in inserting new FT entry found!!
93781000: system.cpu.l1i.prefetcher: INSERTENTRY(): spatio_region:       0X30, pc:   0x418640, physical addr:    0x18640
93781000: system.cpu.l1i.prefetcher: Created FT entry with:   0x418640
93781000: system.cpu.l1i.prefetcher: CONGRATS: SUCCESS in inserting new FT entry found!!
93815000: system.cpu.l1d.prefetcher: INSERTENTRY(): spatio_region:      0X180, pc:   0x418630, physical addr:    0xc01e0
93815000: system.cpu.l1d.prefetcher: Created FT entry with:   0x418630
93815000: system.cpu.l1d.prefetcher: CONGRATS: SUCCESS in inserting new FT entry found!!
93845000: system.cpu.l1i.prefetcher: INSERTENTRY(): spatio_region:       0X30, pc:   0x4186d4, physical addr:    0x186c0
93845000: system.cpu.l1i.prefetcher: Created FT entry with:   0x4186d4
93845000: system.cpu.l1i.prefetcher: CONGRATS: SUCCESS in inserting new FT entry found!!
93909000: system.cpu.l1i.prefetcher: INSERTENTRY(): spatio_region:       0X30, pc:   0x418700, physical addr:    0x18700
93909000: system.cpu.l1i.prefetcher: Created FT entry with:   0x418700
93909000: system.cpu.l1i.prefetcher: CONGRATS: SUCCESS in inserting new FT entry found!!
93917000: system.cpu.l1d.prefetcher: Updated AGT entry with:          0
93975000: system.cpu.l1i.prefetcher: INSERTENTRY(): spatio_region:       0X30, pc:   0x418740, physical addr:    0x18740
93975000: system.cpu.l1i.prefetcher: Created FT entry with:   0x418740
93975000: system.cpu.l1i.prefetcher: CONGRATS: SUCCESS in inserting new FT entry found!!
93979000: system.cpu.l1d.prefetcher: Updated AGT entry with:          0
94053000: system.cpu.l1i.prefetcher: INSERTENTRY(): spatio_region:       0X30, pc:   0x418680, physical addr:    0x18680
94053000: system.cpu.l1i.prefetcher: Created FT entry with:   0x418680
94053000: system.cpu.l1i.prefetcher: CONGRATS: SUCCESS in inserting new FT entry found!!
94135000: system.cpu.l1d.prefetcher: Updated AGT entry with:          0
94201000: system.cpu.l1d.prefetcher: Updated AGT entry with:          0
94264000: system.cpu.l1d.prefetcher: Updated AGT entry with:          0
94327000: system.cpu.l1d.prefetcher: Updated AGT entry with:          0
94328000: system.cpu.l1d.prefetcher: Updated AGT entry with:          0
94419000: system.cpu.l1d.prefetcher: Updated AGT entry with:          0
94485000: system.cpu.l1d.prefetcher: Updated AGT entry with:          0
94548000: system.cpu.l1d.prefetcher: Updated AGT entry with:          0
94642000: system.cpu.l1d.prefetcher: INSERTENTRY(): spatio_region:      0X180, pc:   0x4186cb, physical addr:    0xc0568
94642000: system.cpu.l1d.prefetcher: Created FT entry with:   0x4186cb
94642000: system.cpu.l1d.prefetcher: CONGRATS: SUCCESS in inserting new FT entry found!!
94769000: system.cpu.l1i.prefetcher: INSERTENTRY(): spatio_region:       0X31, pc:   0x418840, physical addr:    0x18840
94769000: system.cpu.l1i.prefetcher: Created FT entry with:   0x418840
94769000: system.cpu.l1i.prefetcher: CONGRATS: SUCCESS in inserting new FT entry found!!
94837000: system.cpu.l1i.prefetcher: INSERTENTRY(): spatio_region:       0X31, pc:   0x418900, physical addr:    0x18900
94837000: system.cpu.l1i.prefetcher: Created FT entry with:   0x418900
94837000: system.cpu.l1i.prefetcher: CONGRATS: SUCCESS in inserting new FT entry found!!
94901000: system.cpu.l1i.prefetcher: INSERTENTRY(): spatio_region:       0X31, pc:   0x418af8, physical addr:    0x18ac0
94901000: system.cpu.l1i.prefetcher: Created FT entry with:   0x418af8
94901000: system.cpu.l1i.prefetcher: CONGRATS: SUCCESS in inserting new FT entry found!!
94965000: system.cpu.l1i.prefetcher: INSERTENTRY(): spatio_region:       0X31, pc:   0x418b00, physical addr:    0x18b00
94965000: system.cpu.l1i.prefetcher: Created FT entry with:   0x418b00
94965000: system.cpu.l1i.prefetcher: CONGRATS: SUCCESS in inserting new FT entry found!!
95029000: system.cpu.l1i.prefetcher: INSERTENTRY(): spatio_region:       0X31, pc:   0x418b40, physical addr:    0x18b40
95029000: system.cpu.l1i.prefetcher: Created FT entry with:   0x418b40
95029000: system.cpu.l1i.prefetcher: CONGRATS: SUCCESS in inserting new FT entry found!!
95097000: system.cpu.l1i.prefetcher: INSERTENTRY(): spatio_region:       0X31, pc:   0x418940, physical addr:    0x18940
95097000: system.cpu.l1i.prefetcher: Created FT entry with:   0x418940
95097000: system.cpu.l1i.prefetcher: CONGRATS: SUCCESS in inserting new FT entry found!!
95163000: system.cpu.l1i.prefetcher: INSERTENTRY(): spatio_region:       0X31, pc:   0x418980, physical addr:    0x18980
95163000: system.cpu.l1i.prefetcher: Created FT entry with:   0x418980
95163000: system.cpu.l1i.prefetcher: CONGRATS: SUCCESS in inserting new FT entry found!!
95235000: system.cpu.l1i.prefetcher: INSERTENTRY(): spatio_region:       0X31, pc:   0x4189c0, physical addr:    0x189c0
95235000: system.cpu.l1i.prefetcher: Created FT entry with:   0x4189c0
95235000: system.cpu.l1i.prefetcher: CONGRATS: SUCCESS in inserting new FT entry found!!
95314000: system.cpu.l1i.prefetcher: INSERTENTRY(): spatio_region:       0X31, pc:   0x418a00, physical addr:    0x18a00
95314000: system.cpu.l1i.prefetcher: Created FT entry with:   0x418a00
95314000: system.cpu.l1i.prefetcher: CONGRATS: SUCCESS in inserting new FT entry found!!
95317000: system.cpu.l1d.prefetcher: INSERTENTRY(): spatio_region:      0X180, pc:   0x418958, physical addr:    0xc0588
95317000: system.cpu.l1d.prefetcher: Created FT entry with:   0x418958
95317000: system.cpu.l1d.prefetcher: CONGRATS: SUCCESS in inserting new FT entry found!!
95394000: system.cpu.l1i.prefetcher: INSERTENTRY(): spatio_region:       0X31, pc:   0x418a50, physical addr:    0x18a40
95394000: system.cpu.l1i.prefetcher: Created FT entry with:   0x418a50
95394000: system.cpu.l1i.prefetcher: CONGRATS: SUCCESS in inserting new FT entry found!!
95458000: system.cpu.l1i.prefetcher: INSERTENTRY(): spatio_region:       0X31, pc:   0x418a80, physical addr:    0x18a80
95458000: system.cpu.l1i.prefetcher: Created FT entry with:   0x418a80
95458000: system.cpu.l1i.prefetcher: CONGRATS: SUCCESS in inserting new FT entry found!!
95581000: system.cpu.l1i.prefetcher: INSERTENTRY(): spatio_region:       0X31, pc:   0x418b80, physical addr:    0x18b80
95581000: system.cpu.l1i.prefetcher: Created FT entry with:   0x418b80
95581000: system.cpu.l1i.prefetcher: CONGRATS: SUCCESS in inserting new FT entry found!!
95661000: system.cpu.l1i.prefetcher: INSERTENTRY(): spatio_region:       0X8F, pc:   0x447e20, physical addr:    0x47e00
95661000: system.cpu.l1i.prefetcher: Created FT entry with:   0x447e20
95661000: system.cpu.l1i.prefetcher: CONGRATS: SUCCESS in inserting new FT entry found!!
95738000: system.cpu.l1i.prefetcher: INSERTENTRY(): spatio_region:       0X8F, pc:   0x447e40, physical addr:    0x47e40
95738000: system.cpu.l1i.prefetcher: Created FT entry with:   0x447e40
95738000: system.cpu.l1i.prefetcher: CONGRATS: SUCCESS in inserting new FT entry found!!
95804000: system.cpu.l1i.prefetcher: INSERTENTRY(): spatio_region:       0X8F, pc:   0x447e80, physical addr:    0x47e80
95804000: system.cpu.l1i.prefetcher: Created FT entry with:   0x447e80
95804000: system.cpu.l1i.prefetcher: CONGRATS: SUCCESS in inserting new FT entry found!!
Exit Eventexiting with last active thread context
Dump stats at the end of the ROI!
