gem5 Simulator System.  http://gem5.org
gem5 is copyrighted software; use the --copyright option for details.

gem5 version 20.1.0.2
gem5 compiled Dec 10 2021 07:18:28
gem5 started Dec 10 2021 07:23:07
gem5 executing on ARCH-750, pid 1094370
command line: /data/home/ycc32/450_project/gem5/build/X86/gem5.opt --debug-flags=HWPrefetch -re --outdir=/data/home/ycc32/450_project/gem5/results/X86/run_micro/CCl/Minor4/Slow/DDR3_2133_8x8/1GHz gem5-config/run_micro.py Minor4 Slow microbenchmark/CCl/bench.X86 DDR3_2133_8x8 --clock=1GHz

1GHz CPU speed and DRAM = DDR3_2133_8x8
system.py: init L2 cache with size 1MB
Global frequency set at 1000000000000 ticks per second
   1000: system.cpu.l1i.prefetcher: Hello World from HMM model
  79000: system.cpu.l1i.prefetcher: Hello World from HMM model
  82000: system.cpu.l1d.prefetcher: Hello World from HMM model
 143000: system.cpu.l1i.prefetcher: Hello World from HMM model
 161000: system.cpu.l1d.prefetcher: Hello World from HMM model
 162000: system.cpu.l1d.prefetcher: Hello World from HMM model
 207000: system.cpu.l1i.prefetcher: Hello World from HMM model
 284000: system.cpu.l1i.prefetcher: Hello World from HMM model
 348000: system.cpu.l1i.prefetcher: Hello World from HMM model
 359000: system.cpu.l1d.prefetcher: Hello World from HMM model
 362000: system.cpu.l1d.prefetcher: Hello World from HMM model
 416000: system.cpu.l1i.prefetcher: Hello World from HMM model
 422000: system.cpu.l1d.prefetcher: Hello World from HMM model
 485000: system.cpu.l1i.prefetcher: Hello World from HMM model
 582000: system.cpu.l1i.prefetcher: Hello World from HMM model
 589000: system.cpu.l1d.prefetcher: Hello World from HMM model
 592000: system.cpu.l1d.prefetcher: Hello World from HMM model
 646000: system.cpu.l1i.prefetcher: Hello World from HMM model
 737000: system.cpu.l1i.prefetcher: Hello World from HMM model
 814000: system.cpu.l1i.prefetcher: Hello World from HMM model
 821000: system.cpu.l1d.prefetcher: Hello World from HMM model
 878000: system.cpu.l1i.prefetcher: Hello World from HMM model
 887000: system.cpu.l1d.prefetcher: Hello World from HMM model
 942000: system.cpu.l1i.prefetcher: Hello World from HMM model
 952000: system.cpu.l1d.prefetcher: Hello World from HMM model
1006000: system.cpu.l1i.prefetcher: Hello World from HMM model
1017000: system.cpu.l1d.prefetcher: Hello World from HMM model
1108000: system.cpu.l1d.prefetcher: Hello World from HMM model
1171000: system.cpu.l1d.prefetcher: Hello World from HMM model
1172000: system.cpu.l1i.prefetcher: Hello World from HMM model
1236000: system.cpu.l1d.prefetcher: Hello World from HMM model
1237000: system.cpu.l1d.prefetcher: Hello World from HMM model
1305000: system.cpu.l1d.prefetcher: Hello World from HMM model
1384000: system.cpu.l1i.prefetcher: Hello World from HMM model
1404000: system.cpu.l1d.prefetcher: Hello World from HMM model
1405000: system.cpu.l1d.prefetcher: Hello World from HMM model
1448000: system.cpu.l1i.prefetcher: Hello World from HMM model
1467000: system.cpu.l1d.prefetcher: Hello World from HMM model
1546000: system.cpu.l1i.prefetcher: Hello World from HMM model
1610000: system.cpu.l1i.prefetcher: Hello World from HMM model
1683000: system.cpu.l1d.prefetcher: Hello World from HMM model
1749000: system.cpu.l1i.prefetcher: Hello World from HMM model
1813000: system.cpu.l1i.prefetcher: Hello World from HMM model
1877000: system.cpu.l1i.prefetcher: Hello World from HMM model
1881000: system.cpu.l1d.prefetcher: Hello World from HMM model
1941000: system.cpu.l1i.prefetcher: Hello World from HMM model
2020000: system.cpu.l1i.prefetcher: Hello World from HMM model
2084000: system.cpu.l1i.prefetcher: Hello World from HMM model
2197000: system.cpu.l1i.prefetcher: Hello World from HMM model
2296000: system.cpu.l1d.prefetcher: Hello World from HMM model
2389000: system.cpu.l1i.prefetcher: Hello World from HMM model
2539000: system.cpu.l1d.prefetcher: Hello World from HMM model
2733000: system.cpu.l1d.prefetcher: Hello World from HMM model
2820000: system.cpu.l1i.prefetcher: Hello World from HMM model
2994000: system.cpu.l1d.prefetcher: Hello World from HMM model
3083000: system.cpu.l1i.prefetcher: Hello World from HMM model
3285000: system.cpu.l1i.prefetcher: Hello World from HMM model
3376000: system.cpu.l1i.prefetcher: Hello World from HMM model
3440000: system.cpu.l1i.prefetcher: Hello World from HMM model
3517000: system.cpu.l1i.prefetcher: Hello World from HMM model
3581000: system.cpu.l1i.prefetcher: Hello World from HMM model
3658000: system.cpu.l1i.prefetcher: Hello World from HMM model
3722000: system.cpu.l1i.prefetcher: Hello World from HMM model
3786000: system.cpu.l1i.prefetcher: Hello World from HMM model
3850000: system.cpu.l1i.prefetcher: Hello World from HMM model
3914000: system.cpu.l1i.prefetcher: Hello World from HMM model
3986000: system.cpu.l1d.prefetcher: Hello World from HMM model
4001000: system.cpu.l1d.prefetcher: Hello World from HMM model
4013000: system.cpu.l1i.prefetcher: Hello World from HMM model
4049000: system.cpu.l1d.prefetcher: Hello World from HMM model
4077000: system.cpu.l1i.prefetcher: Hello World from HMM model
4186000: system.cpu.l1i.prefetcher: Hello World from HMM model
4250000: system.cpu.l1i.prefetcher: Hello World from HMM model
4314000: system.cpu.l1i.prefetcher: Hello World from HMM model
4389000: system.cpu.l1i.prefetcher: Hello World from HMM model
4453000: system.cpu.l1i.prefetcher: Hello World from HMM model
4544000: system.cpu.l1i.prefetcher: Hello World from HMM model
4608000: system.cpu.l1i.prefetcher: Hello World from HMM model
4672000: system.cpu.l1i.prefetcher: Hello World from HMM model
4740000: system.cpu.l1i.prefetcher: Hello World from HMM model
4808000: system.cpu.l1i.prefetcher: Hello World from HMM model
4872000: system.cpu.l1i.prefetcher: Hello World from HMM model
4936000: system.cpu.l1i.prefetcher: Hello World from HMM model
5037000: system.cpu.l1i.prefetcher: Hello World from HMM model
5101000: system.cpu.l1i.prefetcher: Hello World from HMM model
5173000: system.cpu.l1d.prefetcher: Hello World from HMM model
5236000: system.cpu.l1d.prefetcher: Hello World from HMM model
5364000: system.cpu.l1d.prefetcher: Hello World from HMM model
5454000: system.cpu.l1d.prefetcher: Hello World from HMM model
5541000: system.cpu.l1d.prefetcher: Hello World from HMM model
5559000: system.cpu.l1d.prefetcher: Hello World from HMM model
5709000: system.cpu.l1d.prefetcher: Hello World from HMM model
5857000: system.cpu.l1d.prefetcher: Hello World from HMM model
5933000: system.cpu.l1d.prefetcher: Hello World from HMM model
5975000: system.cpu.l1i.prefetcher: Hello World from HMM model
6142000: system.cpu.l1d.prefetcher: Hello World from HMM model
6211000: system.cpu.l1i.prefetcher: Hello World from HMM model
6286000: system.cpu.l1i.prefetcher: Hello World from HMM model
6377000: system.cpu.l1i.prefetcher: Hello World from HMM model
6441000: system.cpu.l1i.prefetcher: Hello World from HMM model
6514000: system.cpu.l1d.prefetcher: Hello World from HMM model
6526000: system.cpu.l1d.prefetcher: Hello World from HMM model
6618000: system.cpu.l1i.prefetcher: Hello World from HMM model
6709000: system.cpu.l1i.prefetcher: Hello World from HMM model
6773000: system.cpu.l1i.prefetcher: Hello World from HMM model
6864000: system.cpu.l1i.prefetcher: Hello World from HMM model
6955000: system.cpu.l1i.prefetcher: Hello World from HMM model
7046000: system.cpu.l1i.prefetcher: Hello World from HMM model
7110000: system.cpu.l1i.prefetcher: Hello World from HMM model
7197000: system.cpu.l1d.prefetcher: Hello World from HMM model
7198000: system.cpu.l1d.prefetcher: Hello World from HMM model
7304000: system.cpu.l1i.prefetcher: Hello World from HMM model
7395000: system.cpu.l1i.prefetcher: Hello World from HMM model
7461000: system.cpu.l1i.prefetcher: Hello World from HMM model
7527000: system.cpu.l1i.prefetcher: Hello World from HMM model
7618000: system.cpu.l1i.prefetcher: Hello World from HMM model
7682000: system.cpu.l1i.prefetcher: Hello World from HMM model
7748000: system.cpu.l1i.prefetcher: Hello World from HMM model
7843000: system.cpu.l1i.prefetcher: Hello World from HMM model
8145000: system.cpu.l1d.prefetcher: Hello World from HMM model
8146000: system.cpu.l1d.prefetcher: Hello World from HMM model
8251000: system.cpu.l1i.prefetcher: Hello World from HMM model
8328000: system.cpu.l1i.prefetcher: Hello World from HMM model
8392000: system.cpu.l1i.prefetcher: Hello World from HMM model
8483000: system.cpu.l1i.prefetcher: Hello World from HMM model
8560000: system.cpu.l1i.prefetcher: Hello World from HMM model
8624000: system.cpu.l1i.prefetcher: Hello World from HMM model
8726000: system.cpu.l1d.prefetcher: Hello World from HMM model
8791000: system.cpu.l1i.prefetcher: Hello World from HMM model
8881000: system.cpu.l1i.prefetcher: Hello World from HMM model
8972000: system.cpu.l1i.prefetcher: Hello World from HMM model
9036000: system.cpu.l1i.prefetcher: Hello World from HMM model
9100000: system.cpu.l1i.prefetcher: Hello World from HMM model
9168000: system.cpu.l1i.prefetcher: Hello World from HMM model
9259000: system.cpu.l1i.prefetcher: Hello World from HMM model
9323000: system.cpu.l1i.prefetcher: Hello World from HMM model
9387000: system.cpu.l1i.prefetcher: Hello World from HMM model
9460000: system.cpu.l1d.prefetcher: Hello World from HMM model
9461000: system.cpu.l1d.prefetcher: Hello World from HMM model
9562000: system.cpu.l1i.prefetcher: Hello World from HMM model
9658000: system.cpu.l1i.prefetcher: Hello World from HMM model
9760000: system.cpu.l1i.prefetcher: Hello World from HMM model
9851000: system.cpu.l1i.prefetcher: Hello World from HMM model
9928000: system.cpu.l1i.prefetcher: Hello World from HMM model
10002000: system.cpu.l1d.prefetcher: Hello World from HMM model
10003000: system.cpu.l1d.prefetcher: Hello World from HMM model
10107000: system.cpu.l1i.prefetcher: Hello World from HMM model
10171000: system.cpu.l1i.prefetcher: Hello World from HMM model
10235000: system.cpu.l1i.prefetcher: Hello World from HMM model
10383000: system.cpu.l1d.prefetcher: Hello World from HMM model
10448000: system.cpu.l1i.prefetcher: Hello World from HMM model
10512000: system.cpu.l1i.prefetcher: Hello World from HMM model
10603000: system.cpu.l1i.prefetcher: Hello World from HMM model
10667000: system.cpu.l1i.prefetcher: Hello World from HMM model
10731000: system.cpu.l1i.prefetcher: Hello World from HMM model
10830000: system.cpu.l1i.prefetcher: Hello World from HMM model
10925000: system.cpu.l1i.prefetcher: Hello World from HMM model
10998000: system.cpu.l1d.prefetcher: Hello World from HMM model
10999000: system.cpu.l1d.prefetcher: Hello World from HMM model
11138000: system.cpu.l1i.prefetcher: Hello World from HMM model
11280000: system.cpu.l1i.prefetcher: Hello World from HMM model
11349000: system.cpu.l1i.prefetcher: Hello World from HMM model
11423000: system.cpu.l1d.prefetcher: Hello World from HMM model
11424000: system.cpu.l1d.prefetcher: Hello World from HMM model
11550000: system.cpu.l1i.prefetcher: Hello World from HMM model
11641000: system.cpu.l1i.prefetcher: Hello World from HMM model
11705000: system.cpu.l1i.prefetcher: Hello World from HMM model
11769000: system.cpu.l1i.prefetcher: Hello World from HMM model
11794000: system.cpu.l1d.prefetcher: Hello World from HMM model
11833000: system.cpu.l1i.prefetcher: Hello World from HMM model
11900000: system.cpu.l1i.prefetcher: Hello World from HMM model
11901000: system.cpu.l1d.prefetcher: Hello World from HMM model
11964000: system.cpu.l1i.prefetcher: Hello World from HMM model
12040000: system.cpu.l1d.prefetcher: Hello World from HMM model
12041000: system.cpu.l1d.prefetcher: Hello World from HMM model
12111000: system.cpu.l1d.prefetcher: Hello World from HMM model
12112000: system.cpu.l1d.prefetcher: Hello World from HMM model
12182000: system.cpu.l1d.prefetcher: Hello World from HMM model
12183000: system.cpu.l1d.prefetcher: Hello World from HMM model
12253000: system.cpu.l1d.prefetcher: Hello World from HMM model
12254000: system.cpu.l1d.prefetcher: Hello World from HMM model
12324000: system.cpu.l1d.prefetcher: Hello World from HMM model
12325000: system.cpu.l1d.prefetcher: Hello World from HMM model
12395000: system.cpu.l1d.prefetcher: Hello World from HMM model
12461000: system.cpu.l1d.prefetcher: Hello World from HMM model
12551000: system.cpu.l1d.prefetcher: Hello World from HMM model
12618000: system.cpu.l1i.prefetcher: Hello World from HMM model
12692000: system.cpu.l1i.prefetcher: Hello World from HMM model
12769000: system.cpu.l1i.prefetcher: Hello World from HMM model
12833000: system.cpu.l1i.prefetcher: Hello World from HMM model
12838000: system.cpu.l1d.prefetcher: Hello World from HMM model
12897000: system.cpu.l1i.prefetcher: Hello World from HMM model
12966000: system.cpu.l1i.prefetcher: Hello World from HMM model
13030000: system.cpu.l1i.prefetcher: Hello World from HMM model
13094000: system.cpu.l1i.prefetcher: Hello World from HMM model
13162000: system.cpu.l1i.prefetcher: Hello World from HMM model
13268000: system.cpu.l1i.prefetcher: Hello World from HMM model
13348000: system.cpu.l1i.prefetcher: Hello World from HMM model
13428000: system.cpu.l1i.prefetcher: Hello World from HMM model
13502000: system.cpu.l1d.prefetcher: Hello World from HMM model
13504000: system.cpu.l1i.prefetcher: Hello World from HMM model
13583000: system.cpu.l1d.prefetcher: Hello World from HMM model
13584000: system.cpu.l1d.prefetcher: Hello World from HMM model
13600000: system.cpu.l1i.prefetcher: Hello World from HMM model
13646000: system.cpu.l1d.prefetcher: Hello World from HMM model
13691000: system.cpu.l1i.prefetcher: Hello World from HMM model
13755000: system.cpu.l1i.prefetcher: Hello World from HMM model
13846000: system.cpu.l1i.prefetcher: Hello World from HMM model
13855000: system.cpu.l1d.prefetcher: Hello World from HMM model
13856000: system.cpu.l1d.prefetcher: Hello World from HMM model
13910000: system.cpu.l1i.prefetcher: Hello World from HMM model
13980000: system.cpu.l1d.prefetcher: Hello World from HMM model
13981000: system.cpu.l1d.prefetcher: Hello World from HMM model
13983000: system.cpu.l1i.prefetcher: Hello World from HMM model
14067000: system.cpu.l1i.prefetcher: Hello World from HMM model
14072000: system.cpu.l1d.prefetcher: Hello World from HMM model
14075000: system.cpu.l1d.prefetcher: Hello World from HMM model
14165000: system.cpu.l1i.prefetcher: Hello World from HMM model
14237000: system.cpu.l1i.prefetcher: Hello World from HMM model
14243000: system.cpu.l1d.prefetcher: Hello World from HMM model
14252000: system.cpu.l1d.prefetcher: Hello World from HMM model
14337000: system.cpu.l1i.prefetcher: Hello World from HMM model
14432000: system.cpu.l1i.prefetcher: Hello World from HMM model
14438000: system.cpu.l1d.prefetcher: Hello World from HMM model
14496000: system.cpu.l1i.prefetcher: Hello World from HMM model
14560000: system.cpu.l1i.prefetcher: Hello World from HMM model
14624000: system.cpu.l1i.prefetcher: Hello World from HMM model
14715000: system.cpu.l1i.prefetcher: Hello World from HMM model
14731000: system.cpu.l1d.prefetcher: Hello World from HMM model
14779000: system.cpu.l1i.prefetcher: Hello World from HMM model
14843000: system.cpu.l1i.prefetcher: Hello World from HMM model
14911000: system.cpu.l1i.prefetcher: Hello World from HMM model
14979000: system.cpu.l1i.prefetcher: Hello World from HMM model
14983000: system.cpu.l1d.prefetcher: Hello World from HMM model
15043000: system.cpu.l1i.prefetcher: Hello World from HMM model
15118000: system.cpu.l1i.prefetcher: Hello World from HMM model
15300000: system.cpu.l1i.prefetcher: Hello World from HMM model
15368000: system.cpu.l1i.prefetcher: Hello World from HMM model
15371000: system.cpu.l1d.prefetcher: Hello World from HMM model
15432000: system.cpu.l1i.prefetcher: Hello World from HMM model
15527000: system.cpu.l1i.prefetcher: Hello World from HMM model
15593000: system.cpu.l1i.prefetcher: Hello World from HMM model
15912000: system.cpu.l1i.prefetcher: Hello World from HMM model
15976000: system.cpu.l1i.prefetcher: Hello World from HMM model
15981000: system.cpu.l1d.prefetcher: Hello World from HMM model
16040000: system.cpu.l1i.prefetcher: Hello World from HMM model
16139000: system.cpu.l1i.prefetcher: Hello World from HMM model
16149000: system.cpu.l1d.prefetcher: Hello World from HMM model
16216000: system.cpu.l1i.prefetcher: Hello World from HMM model
16293000: system.cpu.l1i.prefetcher: Hello World from HMM model
16357000: system.cpu.l1i.prefetcher: Hello World from HMM model
16426000: system.cpu.l1d.prefetcher: Hello World from HMM model
16427000: system.cpu.l1i.prefetcher: Hello World from HMM model
16522000: system.cpu.l1i.prefetcher: Hello World from HMM model
16606000: system.cpu.l1d.prefetcher: Hello World from HMM model
16670000: system.cpu.l1i.prefetcher: Hello World from HMM model
16900000: system.cpu.l1i.prefetcher: Hello World from HMM model
16964000: system.cpu.l1i.prefetcher: Hello World from HMM model
17041000: system.cpu.l1i.prefetcher: Hello World from HMM model
17047000: system.cpu.l1d.prefetcher: Hello World from HMM model
17105000: system.cpu.l1i.prefetcher: Hello World from HMM model
17112000: system.cpu.l1d.prefetcher: Hello World from HMM model
17113000: system.cpu.l1d.prefetcher: Hello World from HMM model
17169000: system.cpu.l1i.prefetcher: Hello World from HMM model
17233000: system.cpu.l1i.prefetcher: Hello World from HMM model
17297000: system.cpu.l1i.prefetcher: Hello World from HMM model
17361000: system.cpu.l1i.prefetcher: Hello World from HMM model
17366000: system.cpu.l1d.prefetcher: Hello World from HMM model
17425000: system.cpu.l1i.prefetcher: Hello World from HMM model
17489000: system.cpu.l1i.prefetcher: Hello World from HMM model
17553000: system.cpu.l1i.prefetcher: Hello World from HMM model
17617000: system.cpu.l1i.prefetcher: Hello World from HMM model
17681000: system.cpu.l1i.prefetcher: Hello World from HMM model
17696000: system.cpu.l1d.prefetcher: Hello World from HMM model
17745000: system.cpu.l1i.prefetcher: Hello World from HMM model
17756000: system.cpu.l1d.prefetcher: Hello World from HMM model
17758000: system.cpu.l1d.prefetcher: Hello World from HMM model
17814000: system.cpu.l1i.prefetcher: Hello World from HMM model
17888000: system.cpu.l1i.prefetcher: Hello World from HMM model
17965000: system.cpu.l1d.prefetcher: Hello World from HMM model
17966000: system.cpu.l1d.prefetcher: Hello World from HMM model
18069000: system.cpu.l1d.prefetcher: Hello World from HMM model
18070000: system.cpu.l1d.prefetcher: Hello World from HMM model
18173000: system.cpu.l1d.prefetcher: Hello World from HMM model
18174000: system.cpu.l1d.prefetcher: Hello World from HMM model
18277000: system.cpu.l1d.prefetcher: Hello World from HMM model
18278000: system.cpu.l1d.prefetcher: Hello World from HMM model
18381000: system.cpu.l1d.prefetcher: Hello World from HMM model
18382000: system.cpu.l1d.prefetcher: Hello World from HMM model
18485000: system.cpu.l1d.prefetcher: Hello World from HMM model
18486000: system.cpu.l1d.prefetcher: Hello World from HMM model
18589000: system.cpu.l1d.prefetcher: Hello World from HMM model
18590000: system.cpu.l1d.prefetcher: Hello World from HMM model
18693000: system.cpu.l1d.prefetcher: Hello World from HMM model
18694000: system.cpu.l1d.prefetcher: Hello World from HMM model
18797000: system.cpu.l1d.prefetcher: Hello World from HMM model
18798000: system.cpu.l1d.prefetcher: Hello World from HMM model
18901000: system.cpu.l1d.prefetcher: Hello World from HMM model
18902000: system.cpu.l1d.prefetcher: Hello World from HMM model
19005000: system.cpu.l1d.prefetcher: Hello World from HMM model
19006000: system.cpu.l1d.prefetcher: Hello World from HMM model
19109000: system.cpu.l1d.prefetcher: Hello World from HMM model
19110000: system.cpu.l1d.prefetcher: Hello World from HMM model
19213000: system.cpu.l1d.prefetcher: Hello World from HMM model
19214000: system.cpu.l1d.prefetcher: Hello World from HMM model
19330000: system.cpu.l1d.prefetcher: Hello World from HMM model
19331000: system.cpu.l1d.prefetcher: Hello World from HMM model
19434000: system.cpu.l1d.prefetcher: Hello World from HMM model
19435000: system.cpu.l1d.prefetcher: Hello World from HMM model
19538000: system.cpu.l1d.prefetcher: Hello World from HMM model
19539000: system.cpu.l1d.prefetcher: Hello World from HMM model
19642000: system.cpu.l1d.prefetcher: Hello World from HMM model
19643000: system.cpu.l1d.prefetcher: Hello World from HMM model
19746000: system.cpu.l1d.prefetcher: Hello World from HMM model
19747000: system.cpu.l1d.prefetcher: Hello World from HMM model
19850000: system.cpu.l1d.prefetcher: Hello World from HMM model
19851000: system.cpu.l1d.prefetcher: Hello World from HMM model
19954000: system.cpu.l1d.prefetcher: Hello World from HMM model
19955000: system.cpu.l1d.prefetcher: Hello World from HMM model
20058000: system.cpu.l1d.prefetcher: Hello World from HMM model
20059000: system.cpu.l1d.prefetcher: Hello World from HMM model
20162000: system.cpu.l1d.prefetcher: Hello World from HMM model
20163000: system.cpu.l1d.prefetcher: Hello World from HMM model
20266000: system.cpu.l1d.prefetcher: Hello World from HMM model
20267000: system.cpu.l1d.prefetcher: Hello World from HMM model
20370000: system.cpu.l1d.prefetcher: Hello World from HMM model
20371000: system.cpu.l1d.prefetcher: Hello World from HMM model
20474000: system.cpu.l1d.prefetcher: Hello World from HMM model
20475000: system.cpu.l1d.prefetcher: Hello World from HMM model
20578000: system.cpu.l1d.prefetcher: Hello World from HMM model
20579000: system.cpu.l1d.prefetcher: Hello World from HMM model
20682000: system.cpu.l1d.prefetcher: Hello World from HMM model
20683000: system.cpu.l1d.prefetcher: Hello World from HMM model
20786000: system.cpu.l1d.prefetcher: Hello World from HMM model
20787000: system.cpu.l1d.prefetcher: Hello World from HMM model
20890000: system.cpu.l1d.prefetcher: Hello World from HMM model
20891000: system.cpu.l1d.prefetcher: Hello World from HMM model
21007000: system.cpu.l1d.prefetcher: Hello World from HMM model
21008000: system.cpu.l1d.prefetcher: Hello World from HMM model
21111000: system.cpu.l1d.prefetcher: Hello World from HMM model
21112000: system.cpu.l1d.prefetcher: Hello World from HMM model
21213000: system.cpu.l1i.prefetcher: Hello World from HMM model
21287000: system.cpu.l1d.prefetcher: Hello World from HMM model
21371000: system.cpu.l1d.prefetcher: Hello World from HMM model
21475000: system.cpu.l1d.prefetcher: Hello World from HMM model
21609000: system.cpu.l1d.prefetcher: Hello World from HMM model
21711000: system.cpu.l1i.prefetcher: Hello World from HMM model
21812000: system.cpu.l1d.prefetcher: Hello World from HMM model
21972000: system.cpu.l1d.prefetcher: Hello World from HMM model
22105000: system.cpu.l1d.prefetcher: Hello World from HMM model
22220000: system.cpu.l1d.prefetcher: Hello World from HMM model
22338000: system.cpu.l1i.prefetcher: Hello World from HMM model
22439000: system.cpu.l1d.prefetcher: Hello World from HMM model
22529000: system.cpu.l1d.prefetcher: Hello World from HMM model
22661000: system.cpu.l1d.prefetcher: Hello World from HMM model
22867000: system.cpu.l1d.prefetcher: Hello World from HMM model
22985000: system.cpu.l1i.prefetcher: Hello World from HMM model
23086000: system.cpu.l1d.prefetcher: Hello World from HMM model
23176000: system.cpu.l1d.prefetcher: Hello World from HMM model
23313000: system.cpu.l1i.prefetcher: Hello World from HMM model
23408000: system.cpu.l1i.prefetcher: Hello World from HMM model
23712000: system.cpu.l1i.prefetcher: Hello World from HMM model
23776000: system.cpu.l1i.prefetcher: Hello World from HMM model
23868000: system.cpu.l1i.prefetcher: Hello World from HMM model
23945000: system.cpu.l1i.prefetcher: Hello World from HMM model
24009000: system.cpu.l1i.prefetcher: Hello World from HMM model
24073000: system.cpu.l1i.prefetcher: Hello World from HMM model
24137000: system.cpu.l1i.prefetcher: Hello World from HMM model
24201000: system.cpu.l1i.prefetcher: Hello World from HMM model
24211000: system.cpu.l1d.prefetcher: Hello World from HMM model
24214000: system.cpu.l1d.prefetcher: Hello World from HMM model
24265000: system.cpu.l1i.prefetcher: Hello World from HMM model
24329000: system.cpu.l1i.prefetcher: Hello World from HMM model
24393000: system.cpu.l1i.prefetcher: Hello World from HMM model
24457000: system.cpu.l1i.prefetcher: Hello World from HMM model
24521000: system.cpu.l1i.prefetcher: Hello World from HMM model
24587000: system.cpu.l1i.prefetcher: Hello World from HMM model
24651000: system.cpu.l1i.prefetcher: Hello World from HMM model
24715000: system.cpu.l1i.prefetcher: Hello World from HMM model
24721000: system.cpu.l1d.prefetcher: Hello World from HMM model
24724000: system.cpu.l1d.prefetcher: Hello World from HMM model
24779000: system.cpu.l1i.prefetcher: Hello World from HMM model
24799000: system.cpu.l1d.prefetcher: Hello World from HMM model
24845000: system.cpu.l1i.prefetcher: Hello World from HMM model
24851000: system.cpu.l1d.prefetcher: Hello World from HMM model
24909000: system.cpu.l1i.prefetcher: Hello World from HMM model
24986000: system.cpu.l1i.prefetcher: Hello World from HMM model
25052000: system.cpu.l1i.prefetcher: Hello World from HMM model
25061000: system.cpu.l1d.prefetcher: Hello World from HMM model
25116000: system.cpu.l1i.prefetcher: Hello World from HMM model
25180000: system.cpu.l1i.prefetcher: Hello World from HMM model
25244000: system.cpu.l1i.prefetcher: Hello World from HMM model
25308000: system.cpu.l1i.prefetcher: Hello World from HMM model
25376000: system.cpu.l1i.prefetcher: Hello World from HMM model
25440000: system.cpu.l1i.prefetcher: Hello World from HMM model
25504000: system.cpu.l1i.prefetcher: Hello World from HMM model
25568000: system.cpu.l1i.prefetcher: Hello World from HMM model
25632000: system.cpu.l1i.prefetcher: Hello World from HMM model
25696000: system.cpu.l1i.prefetcher: Hello World from HMM model
25709000: system.cpu.l1d.prefetcher: Hello World from HMM model
25712000: system.cpu.l1d.prefetcher: Hello World from HMM model
25760000: system.cpu.l1i.prefetcher: Hello World from HMM model
25775000: system.cpu.l1d.prefetcher: Hello World from HMM model
25824000: system.cpu.l1i.prefetcher: Hello World from HMM model
25841000: system.cpu.l1d.prefetcher: Hello World from HMM model
25892000: system.cpu.l1i.prefetcher: Hello World from HMM model
25956000: system.cpu.l1i.prefetcher: Hello World from HMM model
26033000: system.cpu.l1i.prefetcher: Hello World from HMM model
26097000: system.cpu.l1i.prefetcher: Hello World from HMM model
26219000: system.cpu.l1d.prefetcher: Hello World from HMM model
26248000: system.cpu.l1i.prefetcher: Hello World from HMM model
26368000: system.cpu.l1i.prefetcher: Hello World from HMM model
26378000: system.cpu.l1d.prefetcher: Hello World from HMM model
26432000: system.cpu.l1i.prefetcher: Hello World from HMM model
26457000: system.cpu.l1d.prefetcher: Hello World from HMM model
26496000: system.cpu.l1i.prefetcher: Hello World from HMM model
26560000: system.cpu.l1i.prefetcher: Hello World from HMM model
26624000: system.cpu.l1i.prefetcher: Hello World from HMM model
26699000: system.cpu.l1i.prefetcher: Hello World from HMM model
26763000: system.cpu.l1i.prefetcher: Hello World from HMM model
26827000: system.cpu.l1i.prefetcher: Hello World from HMM model
26893000: system.cpu.l1i.prefetcher: Hello World from HMM model
26959000: system.cpu.l1i.prefetcher: Hello World from HMM model
27032000: system.cpu.l1i.prefetcher: Hello World from HMM model
27241000: system.cpu.l1i.prefetcher: Hello World from HMM model
27305000: system.cpu.l1i.prefetcher: Hello World from HMM model
27369000: system.cpu.l1i.prefetcher: Hello World from HMM model
27452000: system.cpu.l1d.prefetcher: Hello World from HMM model
27461000: system.cpu.l1i.prefetcher: Hello World from HMM model
27536000: system.cpu.l1i.prefetcher: Hello World from HMM model
27600000: system.cpu.l1i.prefetcher: Hello World from HMM model
27615000: system.cpu.l1d.prefetcher: Hello World from HMM model
27669000: system.cpu.l1i.prefetcher: Hello World from HMM model
27767000: system.cpu.l1i.prefetcher: Hello World from HMM model
27831000: system.cpu.l1i.prefetcher: Hello World from HMM model
27903000: system.cpu.l1i.prefetcher: Hello World from HMM model
28007000: system.cpu.l1d.prefetcher: Hello World from HMM model
28019000: system.cpu.l1d.prefetcher: Hello World from HMM model
28101000: system.cpu.l1d.prefetcher: Hello World from HMM model
28113000: system.cpu.l1d.prefetcher: Hello World from HMM model
28195000: system.cpu.l1d.prefetcher: Hello World from HMM model
28207000: system.cpu.l1d.prefetcher: Hello World from HMM model
28289000: system.cpu.l1d.prefetcher: Hello World from HMM model
28301000: system.cpu.l1d.prefetcher: Hello World from HMM model
28383000: system.cpu.l1d.prefetcher: Hello World from HMM model
28395000: system.cpu.l1d.prefetcher: Hello World from HMM model
28477000: system.cpu.l1d.prefetcher: Hello World from HMM model
28489000: system.cpu.l1d.prefetcher: Hello World from HMM model
28571000: system.cpu.l1d.prefetcher: Hello World from HMM model
28583000: system.cpu.l1d.prefetcher: Hello World from HMM model
28665000: system.cpu.l1d.prefetcher: Hello World from HMM model
28677000: system.cpu.l1d.prefetcher: Hello World from HMM model
28759000: system.cpu.l1d.prefetcher: Hello World from HMM model
28771000: system.cpu.l1d.prefetcher: Hello World from HMM model
28935000: system.cpu.l1i.prefetcher: Hello World from HMM model
29007000: system.cpu.l1i.prefetcher: Hello World from HMM model
29083000: system.cpu.l1i.prefetcher: Hello World from HMM model
29147000: system.cpu.l1i.prefetcher: Hello World from HMM model
29152000: system.cpu.l1d.prefetcher: Hello World from HMM model
29211000: system.cpu.l1i.prefetcher: Hello World from HMM model
29315000: system.cpu.l1i.prefetcher: Hello World from HMM model
29402000: system.cpu.l1i.prefetcher: Hello World from HMM model
29487000: system.cpu.l1i.prefetcher: Hello World from HMM model
29551000: system.cpu.l1i.prefetcher: Hello World from HMM model
29647000: system.cpu.l1d.prefetcher: Hello World from HMM model
29731000: system.cpu.l1i.prefetcher: Hello World from HMM model
29808000: system.cpu.l1i.prefetcher: Hello World from HMM model
29899000: system.cpu.l1i.prefetcher: Hello World from HMM model
29963000: system.cpu.l1i.prefetcher: Hello World from HMM model
30064000: system.cpu.l1i.prefetcher: Hello World from HMM model
30128000: system.cpu.l1i.prefetcher: Hello World from HMM model
30194000: system.cpu.l1i.prefetcher: Hello World from HMM model
30258000: system.cpu.l1i.prefetcher: Hello World from HMM model
30331000: system.cpu.l1i.prefetcher: Hello World from HMM model
30431000: system.cpu.l1d.prefetcher: Hello World from HMM model
30437000: system.cpu.l1d.prefetcher: Hello World from HMM model
30526000: system.cpu.l1i.prefetcher: Hello World from HMM model
30603000: system.cpu.l1i.prefetcher: Hello World from HMM model
30680000: system.cpu.l1i.prefetcher: Hello World from HMM model
30705000: system.cpu.l1d.prefetcher: Hello World from HMM model
30744000: system.cpu.l1i.prefetcher: Hello World from HMM model
30810000: system.cpu.l1i.prefetcher: Hello World from HMM model
30816000: system.cpu.l1d.prefetcher: Hello World from HMM model
30876000: system.cpu.l1i.prefetcher: Hello World from HMM model
30967000: system.cpu.l1i.prefetcher: Hello World from HMM model
31058000: system.cpu.l1i.prefetcher: Hello World from HMM model
31122000: system.cpu.l1i.prefetcher: Hello World from HMM model
31191000: system.cpu.l1i.prefetcher: Hello World from HMM model
31551000: system.cpu.l1i.prefetcher: Hello World from HMM model
31628000: system.cpu.l1i.prefetcher: Hello World from HMM model
31705000: system.cpu.l1i.prefetcher: Hello World from HMM model
31774000: system.cpu.l1i.prefetcher: Hello World from HMM model
31859000: system.cpu.l1i.prefetcher: Hello World from HMM model
31871000: system.cpu.l1d.prefetcher: Hello World from HMM model
31872000: system.cpu.l1d.prefetcher: Hello World from HMM model
31947000: system.cpu.l1d.prefetcher: Hello World from HMM model
32033000: system.cpu.l1i.prefetcher: Hello World from HMM model
32099000: system.cpu.l1i.prefetcher: Hello World from HMM model
32163000: system.cpu.l1i.prefetcher: Hello World from HMM model
32254000: system.cpu.l1i.prefetcher: Hello World from HMM model
32318000: system.cpu.l1i.prefetcher: Hello World from HMM model
32382000: system.cpu.l1i.prefetcher: Hello World from HMM model
32469000: system.cpu.l1d.prefetcher: Hello World from HMM model
32505000: system.cpu.l1d.prefetcher: Hello World from HMM model
32545000: system.cpu.l1d.prefetcher: Hello World from HMM model
32547000: system.cpu.l1d.prefetcher: Hello World from HMM model
32636000: system.cpu.l1i.prefetcher: Hello World from HMM model
32786000: system.cpu.l1i.prefetcher: Hello World from HMM model
32871000: system.cpu.l1d.prefetcher: Hello World from HMM model
32914000: system.cpu.l1i.prefetcher: Hello World from HMM model
32978000: system.cpu.l1i.prefetcher: Hello World from HMM model
33042000: system.cpu.l1i.prefetcher: Hello World from HMM model
33110000: system.cpu.l1i.prefetcher: Hello World from HMM model
33213000: system.cpu.l1i.prefetcher: Hello World from HMM model
33292000: system.cpu.l1i.prefetcher: Hello World from HMM model
33356000: system.cpu.l1i.prefetcher: Hello World from HMM model
33420000: system.cpu.l1i.prefetcher: Hello World from HMM model
33484000: system.cpu.l1i.prefetcher: Hello World from HMM model
33584000: system.cpu.l1i.prefetcher: Hello World from HMM model
33661000: system.cpu.l1i.prefetcher: Hello World from HMM model
33725000: system.cpu.l1i.prefetcher: Hello World from HMM model
33789000: system.cpu.l1i.prefetcher: Hello World from HMM model
33853000: system.cpu.l1i.prefetcher: Hello World from HMM model
33921000: system.cpu.l1i.prefetcher: Hello World from HMM model
33928000: system.cpu.l1d.prefetcher: Hello World from HMM model
33932000: system.cpu.l1d.prefetcher: Hello World from HMM model
33985000: system.cpu.l1i.prefetcher: Hello World from HMM model
33991000: system.cpu.l1d.prefetcher: Hello World from HMM model
33992000: system.cpu.l1d.prefetcher: Hello World from HMM model
34061000: system.cpu.l1i.prefetcher: Hello World from HMM model
34131000: system.cpu.l1d.prefetcher: Hello World from HMM model
34132000: system.cpu.l1d.prefetcher: Hello World from HMM model
34209000: system.cpu.l1d.prefetcher: Hello World from HMM model
34210000: system.cpu.l1d.prefetcher: Hello World from HMM model
34287000: system.cpu.l1d.prefetcher: Hello World from HMM model
34288000: system.cpu.l1d.prefetcher: Hello World from HMM model
34365000: system.cpu.l1d.prefetcher: Hello World from HMM model
34366000: system.cpu.l1d.prefetcher: Hello World from HMM model
34443000: system.cpu.l1d.prefetcher: Hello World from HMM model
34444000: system.cpu.l1d.prefetcher: Hello World from HMM model
34521000: system.cpu.l1d.prefetcher: Hello World from HMM model
34522000: system.cpu.l1d.prefetcher: Hello World from HMM model
34599000: system.cpu.l1d.prefetcher: Hello World from HMM model
34600000: system.cpu.l1d.prefetcher: Hello World from HMM model
34677000: system.cpu.l1d.prefetcher: Hello World from HMM model
34678000: system.cpu.l1d.prefetcher: Hello World from HMM model
34755000: system.cpu.l1d.prefetcher: Hello World from HMM model
34756000: system.cpu.l1d.prefetcher: Hello World from HMM model
34833000: system.cpu.l1d.prefetcher: Hello World from HMM model
34834000: system.cpu.l1d.prefetcher: Hello World from HMM model
34911000: system.cpu.l1d.prefetcher: Hello World from HMM model
34912000: system.cpu.l1d.prefetcher: Hello World from HMM model
34989000: system.cpu.l1d.prefetcher: Hello World from HMM model
34990000: system.cpu.l1d.prefetcher: Hello World from HMM model
35067000: system.cpu.l1d.prefetcher: Hello World from HMM model
35068000: system.cpu.l1d.prefetcher: Hello World from HMM model
35145000: system.cpu.l1d.prefetcher: Hello World from HMM model
35146000: system.cpu.l1d.prefetcher: Hello World from HMM model
35236000: system.cpu.l1d.prefetcher: Hello World from HMM model
35237000: system.cpu.l1d.prefetcher: Hello World from HMM model
35314000: system.cpu.l1d.prefetcher: Hello World from HMM model
35315000: system.cpu.l1d.prefetcher: Hello World from HMM model
35413000: system.cpu.l1i.prefetcher: Hello World from HMM model
35532000: system.cpu.l1i.prefetcher: Hello World from HMM model
35600000: system.cpu.l1i.prefetcher: Hello World from HMM model
35702000: system.cpu.l1i.prefetcher: Hello World from HMM model
35820000: system.cpu.l1i.prefetcher: Hello World from HMM model
35884000: system.cpu.l1i.prefetcher: Hello World from HMM model
35948000: system.cpu.l1i.prefetcher: Hello World from HMM model
36016000: system.cpu.l1i.prefetcher: Hello World from HMM model
36080000: system.cpu.l1i.prefetcher: Hello World from HMM model
36148000: system.cpu.l1i.prefetcher: Hello World from HMM model
36216000: system.cpu.l1i.prefetcher: Hello World from HMM model
36284000: system.cpu.l1i.prefetcher: Hello World from HMM model
36348000: system.cpu.l1i.prefetcher: Hello World from HMM model
36455000: system.cpu.l1d.prefetcher: Hello World from HMM model
36456000: system.cpu.l1d.prefetcher: Hello World from HMM model
36554000: system.cpu.l1i.prefetcher: Hello World from HMM model
36625000: system.cpu.l1i.prefetcher: Hello World from HMM model
36693000: system.cpu.l1i.prefetcher: Hello World from HMM model
36768000: system.cpu.l1i.prefetcher: Hello World from HMM model
36832000: system.cpu.l1i.prefetcher: Hello World from HMM model
36896000: system.cpu.l1i.prefetcher: Hello World from HMM model
36960000: system.cpu.l1i.prefetcher: Hello World from HMM model
37024000: system.cpu.l1i.prefetcher: Hello World from HMM model
37088000: system.cpu.l1i.prefetcher: Hello World from HMM model
37152000: system.cpu.l1i.prefetcher: Hello World from HMM model
37238000: system.cpu.l1i.prefetcher: Hello World from HMM model
37304000: system.cpu.l1i.prefetcher: Hello World from HMM model
37376000: system.cpu.l1i.prefetcher: Hello World from HMM model
37440000: system.cpu.l1i.prefetcher: Hello World from HMM model
37504000: system.cpu.l1i.prefetcher: Hello World from HMM model
37568000: system.cpu.l1i.prefetcher: Hello World from HMM model
37653000: system.cpu.l1i.prefetcher: Hello World from HMM model
37725000: system.cpu.l1i.prefetcher: Hello World from HMM model
37800000: system.cpu.l1i.prefetcher: Hello World from HMM model
37909000: system.cpu.l1i.prefetcher: Hello World from HMM model
37995000: system.cpu.l1i.prefetcher: Hello World from HMM model
38092000: system.cpu.l1i.prefetcher: Hello World from HMM model
38178000: system.cpu.l1i.prefetcher: Hello World from HMM model
38251000: system.cpu.l1i.prefetcher: Hello World from HMM model
38324000: system.cpu.l1i.prefetcher: Hello World from HMM model
38400000: system.cpu.l1i.prefetcher: Hello World from HMM model
38464000: system.cpu.l1i.prefetcher: Hello World from HMM model
38530000: system.cpu.l1i.prefetcher: Hello World from HMM model
38594000: system.cpu.l1i.prefetcher: Hello World from HMM model
38675000: system.cpu.l1i.prefetcher: Hello World from HMM model
38759000: system.cpu.l1i.prefetcher: Hello World from HMM model
38830000: system.cpu.l1i.prefetcher: Hello World from HMM model
38898000: system.cpu.l1i.prefetcher: Hello World from HMM model
38908000: system.cpu.l1d.prefetcher: Hello World from HMM model
39038000: system.cpu.l1d.prefetcher: Hello World from HMM model
39339000: system.cpu.l1i.prefetcher: Hello World from HMM model
39416000: system.cpu.l1i.prefetcher: Hello World from HMM model
39493000: system.cpu.l1i.prefetcher: Hello World from HMM model
39514000: system.cpu.l1d.prefetcher: Hello World from HMM model
39557000: system.cpu.l1i.prefetcher: Hello World from HMM model
39625000: system.cpu.l1i.prefetcher: Hello World from HMM model
39696000: system.cpu.l1i.prefetcher: Hello World from HMM model
39774000: system.cpu.l1i.prefetcher: Hello World from HMM model
40115000: system.cpu.l1i.prefetcher: Hello World from HMM model
40212000: system.cpu.l1i.prefetcher: Hello World from HMM model
40276000: system.cpu.l1i.prefetcher: Hello World from HMM model
40353000: system.cpu.l1i.prefetcher: Hello World from HMM model
40377000: system.cpu.l1d.prefetcher: Hello World from HMM model
40417000: system.cpu.l1i.prefetcher: Hello World from HMM model
40424000: system.cpu.l1d.prefetcher: Hello World from HMM model
40481000: system.cpu.l1i.prefetcher: Hello World from HMM model
40545000: system.cpu.l1i.prefetcher: Hello World from HMM model
40613000: system.cpu.l1i.prefetcher: Hello World from HMM model
40679000: system.cpu.l1i.prefetcher: Hello World from HMM model
40755000: system.cpu.l1i.prefetcher: Hello World from HMM model
40819000: system.cpu.l1i.prefetcher: Hello World from HMM model
40923000: system.cpu.l1i.prefetcher: Hello World from HMM model
40987000: system.cpu.l1i.prefetcher: Hello World from HMM model
41055000: system.cpu.l1i.prefetcher: Hello World from HMM model
41123000: system.cpu.l1i.prefetcher: Hello World from HMM model
41195000: system.cpu.l1i.prefetcher: Hello World from HMM model
41279000: system.cpu.l1i.prefetcher: Hello World from HMM model
41819000: system.cpu.l1i.prefetcher: Hello World from HMM model
41932000: system.cpu.l1i.prefetcher: Hello World from HMM model
42049000: system.cpu.l1i.prefetcher: Hello World from HMM model
42142000: system.cpu.l1i.prefetcher: Hello World from HMM model
42224000: system.cpu.l1i.prefetcher: Hello World from HMM model
42309000: system.cpu.l1i.prefetcher: Hello World from HMM model
42774000: system.cpu.l1i.prefetcher: Hello World from HMM model
42944000: system.cpu.l1i.prefetcher: Hello World from HMM model
43025000: system.cpu.l1i.prefetcher: Hello World from HMM model
43089000: system.cpu.l1i.prefetcher: Hello World from HMM model
43342000: system.cpu.l1d.prefetcher: Hello World from HMM model
43778000: system.cpu.l1i.prefetcher: Hello World from HMM model
43862000: system.cpu.l1i.prefetcher: Hello World from HMM model
44591000: system.cpu.l1i.prefetcher: Hello World from HMM model
44657000: system.cpu.l1i.prefetcher: Hello World from HMM model
44733000: system.cpu.l1i.prefetcher: Hello World from HMM model
44945000: system.cpu.l1i.prefetcher: Hello World from HMM model
45065000: system.cpu.l1i.prefetcher: Hello World from HMM model
45129000: system.cpu.l1i.prefetcher: Hello World from HMM model
45193000: system.cpu.l1i.prefetcher: Hello World from HMM model
45257000: system.cpu.l1i.prefetcher: Hello World from HMM model
45264000: system.cpu.l1d.prefetcher: Hello World from HMM model
45321000: system.cpu.l1i.prefetcher: Hello World from HMM model
45385000: system.cpu.l1i.prefetcher: Hello World from HMM model
45476000: system.cpu.l1i.prefetcher: Hello World from HMM model
45540000: system.cpu.l1i.prefetcher: Hello World from HMM model
45614000: system.cpu.l1d.prefetcher: Hello World from HMM model
45724000: system.cpu.l1i.prefetcher: Hello World from HMM model
45792000: system.cpu.l1i.prefetcher: Hello World from HMM model
45863000: system.cpu.l1i.prefetcher: Hello World from HMM model
45927000: system.cpu.l1i.prefetcher: Hello World from HMM model
45991000: system.cpu.l1i.prefetcher: Hello World from HMM model
46057000: system.cpu.l1i.prefetcher: Hello World from HMM model
46121000: system.cpu.l1i.prefetcher: Hello World from HMM model
46185000: system.cpu.l1i.prefetcher: Hello World from HMM model
46249000: system.cpu.l1i.prefetcher: Hello World from HMM model
46317000: system.cpu.l1i.prefetcher: Hello World from HMM model
46478000: system.cpu.l1i.prefetcher: Hello World from HMM model
46542000: system.cpu.l1i.prefetcher: Hello World from HMM model
46606000: system.cpu.l1i.prefetcher: Hello World from HMM model
46670000: system.cpu.l1i.prefetcher: Hello World from HMM model
46747000: system.cpu.l1i.prefetcher: Hello World from HMM model
47060000: system.cpu.l1i.prefetcher: Hello World from HMM model
47124000: system.cpu.l1i.prefetcher: Hello World from HMM model
47188000: system.cpu.l1i.prefetcher: Hello World from HMM model
47252000: system.cpu.l1i.prefetcher: Hello World from HMM model
47316000: system.cpu.l1i.prefetcher: Hello World from HMM model
47385000: system.cpu.l1i.prefetcher: Hello World from HMM model
47449000: system.cpu.l1i.prefetcher: Hello World from HMM model
47513000: system.cpu.l1i.prefetcher: Hello World from HMM model
47526000: system.cpu.l1d.prefetcher: Hello World from HMM model
47577000: system.cpu.l1i.prefetcher: Hello World from HMM model
47648000: system.cpu.l1i.prefetcher: Hello World from HMM model
47741000: system.cpu.l1i.prefetcher: Hello World from HMM model
47823000: system.cpu.l1i.prefetcher: Hello World from HMM model
47997000: system.cpu.l1d.prefetcher: Hello World from HMM model
48000000: system.cpu.l1d.prefetcher: Hello World from HMM model
48073000: system.cpu.l1d.prefetcher: Hello World from HMM model
48205000: system.cpu.l1d.prefetcher: Hello World from HMM model
48288000: system.cpu.l1i.prefetcher: Hello World from HMM model
48352000: system.cpu.l1i.prefetcher: Hello World from HMM model
48478000: system.cpu.l1d.prefetcher: Hello World from HMM model
48566000: system.cpu.l1i.prefetcher: Hello World from HMM model
48638000: system.cpu.l1i.prefetcher: Hello World from HMM model
48781000: system.cpu.l1i.prefetcher: Hello World from HMM model
48925000: system.cpu.l1i.prefetcher: Hello World from HMM model
49272000: system.cpu.l1d.prefetcher: Hello World from HMM model
49288000: system.cpu.l1d.prefetcher: Hello World from HMM model
49343000: system.cpu.l1i.prefetcher: Hello World from HMM model
49960000: system.cpu.l1i.prefetcher: Hello World from HMM model
50199000: system.cpu.l1i.prefetcher: Hello World from HMM model
50459000: system.cpu.l1d.prefetcher: Hello World from HMM model
50547000: system.cpu.l1d.prefetcher: Hello World from HMM model
50549000: system.cpu.l1i.prefetcher: Hello World from HMM model
50972000: system.cpu.l1d.prefetcher: Hello World from HMM model
51059000: system.cpu.l1i.prefetcher: Hello World from HMM model
51084000: system.cpu.l1d.prefetcher: Hello World from HMM model
51179000: system.cpu.l1i.prefetcher: Hello World from HMM model
51193000: system.cpu.l1d.prefetcher: Hello World from HMM model
51243000: system.cpu.l1i.prefetcher: Hello World from HMM model
51283000: system.cpu.l1d.prefetcher: Hello World from HMM model
51348000: system.cpu.l1d.prefetcher: Hello World from HMM model
51349000: system.cpu.l1d.prefetcher: Hello World from HMM model
51531000: system.cpu.l1d.prefetcher: Hello World from HMM model
51536000: system.cpu.l1d.prefetcher: Hello World from HMM model
51661000: system.cpu.l1d.prefetcher: Hello World from HMM model
51687000: system.cpu.l1d.prefetcher: Hello World from HMM model
51830000: system.cpu.l1i.prefetcher: Hello World from HMM model
51832000: system.cpu.l1d.prefetcher: Hello World from HMM model
51913000: system.cpu.l1i.prefetcher: Hello World from HMM model
52207000: system.cpu.l1i.prefetcher: Hello World from HMM model
52372000: system.cpu.l1d.prefetcher: Hello World from HMM model
52787000: system.cpu.l1i.prefetcher: Hello World from HMM model
52976000: system.cpu.l1d.prefetcher: Hello World from HMM model
52976000: system.cpu.l1d.prefetcher: Hello World from HMM model
53078000: system.cpu.l1i.prefetcher: Hello World from HMM model
53249000: system.cpu.l1i.prefetcher: Hello World from HMM model
53323000: system.cpu.l1i.prefetcher: Hello World from HMM model
53629000: system.cpu.l1i.prefetcher: Hello World from HMM model
53697000: system.cpu.l1i.prefetcher: Hello World from HMM model
53703000: system.cpu.l1d.prefetcher: Hello World from HMM model
54047000: system.cpu.l1d.prefetcher: Hello World from HMM model
54167000: system.cpu.l1d.prefetcher: Hello World from HMM model
54168000: system.cpu.l1d.prefetcher: Hello World from HMM model
54276000: system.cpu.l1i.prefetcher: Hello World from HMM model
54353000: system.cpu.l1i.prefetcher: Hello World from HMM model
54417000: system.cpu.l1i.prefetcher: Hello World from HMM model
54486000: system.cpu.l1i.prefetcher: Hello World from HMM model
54550000: system.cpu.l1i.prefetcher: Hello World from HMM model
54847000: system.cpu.l1i.prefetcher: Hello World from HMM model
54916000: system.cpu.l1i.prefetcher: Hello World from HMM model
54989000: system.cpu.l1i.prefetcher: Hello World from HMM model
55118000: system.cpu.l1i.prefetcher: Hello World from HMM model
55195000: system.cpu.l1i.prefetcher: Hello World from HMM model
55259000: system.cpu.l1i.prefetcher: Hello World from HMM model
55334000: system.cpu.l1i.prefetcher: Hello World from HMM model
55411000: system.cpu.l1i.prefetcher: Hello World from HMM model
55435000: system.cpu.l1d.prefetcher: Hello World from HMM model
55435000: system.cpu.l1d.prefetcher: Hello World from HMM model
55475000: system.cpu.l1i.prefetcher: Hello World from HMM model
55543000: system.cpu.l1i.prefetcher: Hello World from HMM model
55607000: system.cpu.l1i.prefetcher: Hello World from HMM model
55675000: system.cpu.l1i.prefetcher: Hello World from HMM model
55681000: system.cpu.l1d.prefetcher: Hello World from HMM model
55685000: system.cpu.l1d.prefetcher: Hello World from HMM model
55739000: system.cpu.l1i.prefetcher: Hello World from HMM model
55820000: system.cpu.l1i.prefetcher: Hello World from HMM model
55897000: system.cpu.l1i.prefetcher: Hello World from HMM model
55904000: system.cpu.l1d.prefetcher: Hello World from HMM model
55961000: system.cpu.l1i.prefetcher: Hello World from HMM model
55966000: system.cpu.l1d.prefetcher: Hello World from HMM model
56025000: system.cpu.l1i.prefetcher: Hello World from HMM model
56131000: system.cpu.l1i.prefetcher: Hello World from HMM model
56208000: system.cpu.l1i.prefetcher: Hello World from HMM model
56272000: system.cpu.l1i.prefetcher: Hello World from HMM model
56284000: system.cpu.l1d.prefetcher: Hello World from HMM model
56336000: system.cpu.l1i.prefetcher: Hello World from HMM model
56400000: system.cpu.l1i.prefetcher: Hello World from HMM model
56464000: system.cpu.l1i.prefetcher: Hello World from HMM model
56469000: system.cpu.l1d.prefetcher: Hello World from HMM model
56528000: system.cpu.l1i.prefetcher: Hello World from HMM model
56596000: system.cpu.l1i.prefetcher: Hello World from HMM model
56662000: system.cpu.l1i.prefetcher: Hello World from HMM model
56735000: system.cpu.l1i.prefetcher: Hello World from HMM model
56806000: system.cpu.l1i.prefetcher: Hello World from HMM model
56820000: system.cpu.l1d.prefetcher: Hello World from HMM model
56821000: system.cpu.l1d.prefetcher: Hello World from HMM model
56870000: system.cpu.l1i.prefetcher: Hello World from HMM model
56948000: system.cpu.l1i.prefetcher: Hello World from HMM model
57041000: system.cpu.l1i.prefetcher: Hello World from HMM model
57105000: system.cpu.l1i.prefetcher: Hello World from HMM model
57173000: system.cpu.l1i.prefetcher: Hello World from HMM model
57237000: system.cpu.l1i.prefetcher: Hello World from HMM model
57363000: system.cpu.l1i.prefetcher: Hello World from HMM model
57427000: system.cpu.l1i.prefetcher: Hello World from HMM model
57491000: system.cpu.l1i.prefetcher: Hello World from HMM model
57555000: system.cpu.l1i.prefetcher: Hello World from HMM model
57646000: system.cpu.l1i.prefetcher: Hello World from HMM model
57651000: system.cpu.l1d.prefetcher: Hello World from HMM model
57710000: system.cpu.l1i.prefetcher: Hello World from HMM model
57801000: system.cpu.l1i.prefetcher: Hello World from HMM model
57865000: system.cpu.l1i.prefetcher: Hello World from HMM model
57878000: system.cpu.l1d.prefetcher: Hello World from HMM model
57879000: system.cpu.l1d.prefetcher: Hello World from HMM model
57968000: system.cpu.l1d.prefetcher: Hello World from HMM model
58087000: system.cpu.l1i.prefetcher: Hello World from HMM model
58103000: system.cpu.l1i.prefetcher: Hello World from HMM model
58170000: system.cpu.l1i.prefetcher: Hello World from HMM model
58234000: system.cpu.l1i.prefetcher: Hello World from HMM model
58298000: system.cpu.l1i.prefetcher: Hello World from HMM model
58362000: system.cpu.l1i.prefetcher: Hello World from HMM model
58426000: system.cpu.l1i.prefetcher: Hello World from HMM model
58490000: system.cpu.l1i.prefetcher: Hello World from HMM model
58567000: system.cpu.l1d.prefetcher: Hello World from HMM model
58745000: system.cpu.l1i.prefetcher: Hello World from HMM model
58862000: system.cpu.l1i.prefetcher: Hello World from HMM model
58966000: system.cpu.l1i.prefetcher: Hello World from HMM model
59030000: system.cpu.l1i.prefetcher: Hello World from HMM model
59096000: system.cpu.l1i.prefetcher: Hello World from HMM model
59162000: system.cpu.l1i.prefetcher: Hello World from HMM model
59234000: system.cpu.l1i.prefetcher: Hello World from HMM model
59310000: system.cpu.l1i.prefetcher: Hello World from HMM model
59401000: system.cpu.l1i.prefetcher: Hello World from HMM model
59467000: system.cpu.l1i.prefetcher: Hello World from HMM model
59531000: system.cpu.l1i.prefetcher: Hello World from HMM model
59542000: system.cpu.l1d.prefetcher: Hello World from HMM model
59548000: system.cpu.l1d.prefetcher: Hello World from HMM model
59595000: system.cpu.l1i.prefetcher: Hello World from HMM model
59665000: system.cpu.l1i.prefetcher: Hello World from HMM model
59736000: system.cpu.l1d.prefetcher: Hello World from HMM model
59813000: system.cpu.l1d.prefetcher: Hello World from HMM model
59883000: system.cpu.l1i.prefetcher: Hello World from HMM model
59947000: system.cpu.l1i.prefetcher: Hello World from HMM model
60027000: system.cpu.l1i.prefetcher: Hello World from HMM model
60038000: system.cpu.l1d.prefetcher: Hello World from HMM model
60042000: system.cpu.l1i.prefetcher: Hello World from HMM model
60118000: system.cpu.l1i.prefetcher: Hello World from HMM model
61084000: system.cpu.l1d.prefetcher: Hello World from HMM model
62104000: system.cpu.l1d.prefetcher: Hello World from HMM model
63124000: system.cpu.l1d.prefetcher: Hello World from HMM model
91134000: system.cpu.l1i.prefetcher: Hello World from HMM model
91239000: system.cpu.l1i.prefetcher: Hello World from HMM model
91256000: system.cpu.l1d.prefetcher: Hello World from HMM model
91316000: system.cpu.l1i.prefetcher: Hello World from HMM model
91399000: system.cpu.l1i.prefetcher: Hello World from HMM model
91476000: system.cpu.l1i.prefetcher: Hello World from HMM model
91561000: system.cpu.l1i.prefetcher: Hello World from HMM model
91643000: system.cpu.l1d.prefetcher: Hello World from HMM model
91746000: system.cpu.l1i.prefetcher: Hello World from HMM model
91867000: system.cpu.l1i.prefetcher: Hello World from HMM model
91921000: system.cpu.l1i.prefetcher: Hello World from HMM model
91998000: system.cpu.l1i.prefetcher: Hello World from HMM model
92062000: system.cpu.l1i.prefetcher: Hello World from HMM model
92153000: system.cpu.l1i.prefetcher: Hello World from HMM model
92217000: system.cpu.l1i.prefetcher: Hello World from HMM model
92285000: system.cpu.l1i.prefetcher: Hello World from HMM model
92357000: system.cpu.l1i.prefetcher: Hello World from HMM model
92478000: system.cpu.l1i.prefetcher: Hello World from HMM model
92555000: system.cpu.l1i.prefetcher: Hello World from HMM model
92626000: system.cpu.l1i.prefetcher: Hello World from HMM model
92746000: system.cpu.l1i.prefetcher: Hello World from HMM model
92814000: system.cpu.l1i.prefetcher: Hello World from HMM model
92908000: system.cpu.l1i.prefetcher: Hello World from HMM model
92930000: system.cpu.l1d.prefetcher: Hello World from HMM model
93022000: system.cpu.l1i.prefetcher: Hello World from HMM model
93099000: system.cpu.l1i.prefetcher: Hello World from HMM model
93163000: system.cpu.l1i.prefetcher: Hello World from HMM model
93227000: system.cpu.l1i.prefetcher: Hello World from HMM model
93291000: system.cpu.l1i.prefetcher: Hello World from HMM model
93355000: system.cpu.l1i.prefetcher: Hello World from HMM model
93419000: system.cpu.l1i.prefetcher: Hello World from HMM model
93485000: system.cpu.l1i.prefetcher: Hello World from HMM model
93491000: system.cpu.l1d.prefetcher: Hello World from HMM model
93781000: system.cpu.l1i.prefetcher: Hello World from HMM model
93815000: system.cpu.l1d.prefetcher: Hello World from HMM model
93845000: system.cpu.l1i.prefetcher: Hello World from HMM model
93909000: system.cpu.l1i.prefetcher: Hello World from HMM model
93917000: system.cpu.l1d.prefetcher: Hello World from HMM model
93975000: system.cpu.l1i.prefetcher: Hello World from HMM model
93979000: system.cpu.l1d.prefetcher: Hello World from HMM model
94053000: system.cpu.l1i.prefetcher: Hello World from HMM model
94135000: system.cpu.l1d.prefetcher: Hello World from HMM model
94201000: system.cpu.l1d.prefetcher: Hello World from HMM model
94264000: system.cpu.l1d.prefetcher: Hello World from HMM model
94327000: system.cpu.l1d.prefetcher: Hello World from HMM model
94328000: system.cpu.l1d.prefetcher: Hello World from HMM model
94419000: system.cpu.l1d.prefetcher: Hello World from HMM model
94485000: system.cpu.l1d.prefetcher: Hello World from HMM model
94548000: system.cpu.l1d.prefetcher: Hello World from HMM model
94642000: system.cpu.l1d.prefetcher: Hello World from HMM model
94769000: system.cpu.l1i.prefetcher: Hello World from HMM model
94837000: system.cpu.l1i.prefetcher: Hello World from HMM model
94901000: system.cpu.l1i.prefetcher: Hello World from HMM model
94965000: system.cpu.l1i.prefetcher: Hello World from HMM model
95029000: system.cpu.l1i.prefetcher: Hello World from HMM model
95097000: system.cpu.l1i.prefetcher: Hello World from HMM model
95163000: system.cpu.l1i.prefetcher: Hello World from HMM model
95235000: system.cpu.l1i.prefetcher: Hello World from HMM model
95314000: system.cpu.l1i.prefetcher: Hello World from HMM model
95317000: system.cpu.l1d.prefetcher: Hello World from HMM model
95394000: system.cpu.l1i.prefetcher: Hello World from HMM model
95458000: system.cpu.l1i.prefetcher: Hello World from HMM model
95581000: system.cpu.l1i.prefetcher: Hello World from HMM model
95661000: system.cpu.l1i.prefetcher: Hello World from HMM model
95738000: system.cpu.l1i.prefetcher: Hello World from HMM model
95804000: system.cpu.l1i.prefetcher: Hello World from HMM model
Exit Eventexiting with last active thread context
Dump stats at the end of the ROI!
