
---------- Begin Simulation Statistics ----------
final_tick                                   95669000                       # Number of ticks from beginning of simulation (restored from checkpoints and never reset)
host_inst_rate                                 102013                       # Simulator instruction rate (inst/s)
host_mem_usage                                2222948                       # Number of bytes of host memory used
host_op_rate                                   201564                       # Simulator op (including micro ops) rate (op/s)
host_seconds                                     0.22                       # Real time elapsed on the host
host_tick_rate                              428788614                       # Simulator tick rate (ticks/s)
sim_freq                                 1000000000000                       # Frequency of simulated ticks
sim_insts                                       22702                       # Number of instructions simulated
sim_ops                                         44919                       # Number of ops (including micro ops) simulated
sim_seconds                                  0.000096                       # Number of seconds simulated
sim_ticks                                    95669000                       # Number of ticks simulated
system.cpu.committedInsts                       22702                       # Number of instructions committed
system.cpu.committedOps                         44919                       # Number of ops (including micro ops) committed
system.cpu.cpi                               4.214122                       # CPI: cycles per instruction
system.cpu.discardedOps                         12551                       # Number of ops (including micro ops) which were discarded before commit
system.cpu.idleCycles                           38497                       # Total number of cycles that the object has spent stopped
system.cpu.ipc                               0.237297                       # IPC: instructions per cycle
system.cpu.numCycles                            95669                       # number of cpu cycles simulated
system.cpu.numFetchSuspends                         0                       # Number of times Execute suspended instruction fetching
system.cpu.numWorkItemsCompleted                    0                       # number of work items this cpu completed
system.cpu.numWorkItemsStarted                      0                       # number of work items this cpu started
system.cpu.op_class_0::No_OpClass                 285      0.63%      0.63% # Class of committed instruction
system.cpu.op_class_0::IntAlu                   38913     86.63%     87.26% # Class of committed instruction
system.cpu.op_class_0::IntMult                      5      0.01%     87.27% # Class of committed instruction
system.cpu.op_class_0::IntDiv                      21      0.05%     87.32% # Class of committed instruction
system.cpu.op_class_0::FloatAdd                   135      0.30%     87.62% # Class of committed instruction
system.cpu.op_class_0::FloatCmp                     0      0.00%     87.62% # Class of committed instruction
system.cpu.op_class_0::FloatCvt                     0      0.00%     87.62% # Class of committed instruction
system.cpu.op_class_0::FloatMult                    0      0.00%     87.62% # Class of committed instruction
system.cpu.op_class_0::FloatMultAcc                 0      0.00%     87.62% # Class of committed instruction
system.cpu.op_class_0::FloatDiv                     0      0.00%     87.62% # Class of committed instruction
system.cpu.op_class_0::FloatMisc                    0      0.00%     87.62% # Class of committed instruction
system.cpu.op_class_0::FloatSqrt                    0      0.00%     87.62% # Class of committed instruction
system.cpu.op_class_0::SimdAdd                      0      0.00%     87.62% # Class of committed instruction
system.cpu.op_class_0::SimdAddAcc                   0      0.00%     87.62% # Class of committed instruction
system.cpu.op_class_0::SimdAlu                     94      0.21%     87.83% # Class of committed instruction
system.cpu.op_class_0::SimdCmp                      0      0.00%     87.83% # Class of committed instruction
system.cpu.op_class_0::SimdCvt                     46      0.10%     87.93% # Class of committed instruction
system.cpu.op_class_0::SimdMisc                   215      0.48%     88.41% # Class of committed instruction
system.cpu.op_class_0::SimdMult                     0      0.00%     88.41% # Class of committed instruction
system.cpu.op_class_0::SimdMultAcc                  0      0.00%     88.41% # Class of committed instruction
system.cpu.op_class_0::SimdShift                    0      0.00%     88.41% # Class of committed instruction
system.cpu.op_class_0::SimdShiftAcc                 0      0.00%     88.41% # Class of committed instruction
system.cpu.op_class_0::SimdDiv                      0      0.00%     88.41% # Class of committed instruction
system.cpu.op_class_0::SimdSqrt                     0      0.00%     88.41% # Class of committed instruction
system.cpu.op_class_0::SimdFloatAdd                 0      0.00%     88.41% # Class of committed instruction
system.cpu.op_class_0::SimdFloatAlu                 0      0.00%     88.41% # Class of committed instruction
system.cpu.op_class_0::SimdFloatCmp                 0      0.00%     88.41% # Class of committed instruction
system.cpu.op_class_0::SimdFloatCvt                 0      0.00%     88.41% # Class of committed instruction
system.cpu.op_class_0::SimdFloatDiv                 0      0.00%     88.41% # Class of committed instruction
system.cpu.op_class_0::SimdFloatMisc                0      0.00%     88.41% # Class of committed instruction
system.cpu.op_class_0::SimdFloatMult                0      0.00%     88.41% # Class of committed instruction
system.cpu.op_class_0::SimdFloatMultAcc             0      0.00%     88.41% # Class of committed instruction
system.cpu.op_class_0::SimdFloatSqrt                0      0.00%     88.41% # Class of committed instruction
system.cpu.op_class_0::SimdReduceAdd                0      0.00%     88.41% # Class of committed instruction
system.cpu.op_class_0::SimdReduceAlu                0      0.00%     88.41% # Class of committed instruction
system.cpu.op_class_0::SimdReduceCmp                0      0.00%     88.41% # Class of committed instruction
system.cpu.op_class_0::SimdFloatReduceAdd            0      0.00%     88.41% # Class of committed instruction
system.cpu.op_class_0::SimdFloatReduceCmp            0      0.00%     88.41% # Class of committed instruction
system.cpu.op_class_0::SimdAes                      0      0.00%     88.41% # Class of committed instruction
system.cpu.op_class_0::SimdAesMix                   0      0.00%     88.41% # Class of committed instruction
system.cpu.op_class_0::SimdSha1Hash                 0      0.00%     88.41% # Class of committed instruction
system.cpu.op_class_0::SimdSha1Hash2                0      0.00%     88.41% # Class of committed instruction
system.cpu.op_class_0::SimdSha256Hash               0      0.00%     88.41% # Class of committed instruction
system.cpu.op_class_0::SimdSha256Hash2              0      0.00%     88.41% # Class of committed instruction
system.cpu.op_class_0::SimdShaSigma2                0      0.00%     88.41% # Class of committed instruction
system.cpu.op_class_0::SimdShaSigma3                0      0.00%     88.41% # Class of committed instruction
system.cpu.op_class_0::SimdPredAlu                  0      0.00%     88.41% # Class of committed instruction
system.cpu.op_class_0::MemRead                   3531      7.86%     96.27% # Class of committed instruction
system.cpu.op_class_0::MemWrite                  1161      2.58%     98.86% # Class of committed instruction
system.cpu.op_class_0::FloatMemRead                54      0.12%     98.98% # Class of committed instruction
system.cpu.op_class_0::FloatMemWrite              459      1.02%    100.00% # Class of committed instruction
system.cpu.op_class_0::IprAccess                    0      0.00%    100.00% # Class of committed instruction
system.cpu.op_class_0::InstPrefetch                 0      0.00%    100.00% # Class of committed instruction
system.cpu.op_class_0::total                    44919                       # Class of committed instruction
system.cpu.tickCycles                           57172                       # Number of cycles that the object actually ticked
system.cpu.workload.numSyscalls                    10                       # Number of system calls
system.l1_to_l2.snoop_filter.hit_multi_requests            0                       # Number of requests hitting in the snoop filter with multiple (>1) holders of the requested data.
system.l1_to_l2.snoop_filter.hit_multi_snoops            0                       # Number of snoops hitting in the snoop filter with multiple (>1) holders of the requested data.
system.l1_to_l2.snoop_filter.hit_single_requests           82                       # Number of requests hitting in the snoop filter with a single holder of the requested data.
system.l1_to_l2.snoop_filter.hit_single_snoops            0                       # Number of snoops hitting in the snoop filter with a single holder of the requested data.
system.l1_to_l2.snoop_filter.tot_requests          886                       # Total number of requests made to the snoop filter.
system.l1_to_l2.snoop_filter.tot_snoops             0                       # Total number of snoops made to the snoop filter.
system.membus.snoop_filter.hit_multi_requests            0                       # Number of requests hitting in the snoop filter with multiple (>1) holders of the requested data.
system.membus.snoop_filter.hit_multi_snoops            0                       # Number of snoops hitting in the snoop filter with multiple (>1) holders of the requested data.
system.membus.snoop_filter.hit_single_requests            0                       # Number of requests hitting in the snoop filter with a single holder of the requested data.
system.membus.snoop_filter.hit_single_snoops            0                       # Number of snoops hitting in the snoop filter with a single holder of the requested data.
system.membus.snoop_filter.tot_requests           797                       # Total number of requests made to the snoop filter.
system.membus.snoop_filter.tot_snoops               0                       # Total number of snoops made to the snoop filter.
system.clk_domain.clock                          1000                       # Clock period in ticks
system.clk_domain.voltage_domain.voltage            1                       # Voltage in Volts
system.cpu.branchPred.lookups                       0                       # Number of BP lookups
system.cpu.branchPred.condPredicted                 0                       # Number of conditional branches predicted
system.cpu.branchPred.condIncorrect                 0                       # Number of conditional branches incorrect
system.cpu.branchPred.BTBLookups                    0                       # Number of BTB lookups
system.cpu.branchPred.BTBHits                       0                       # Number of BTB hits
system.cpu.branchPred.BTBHitPct                   nan                       # BTB Hit Percentage
system.cpu.branchPred.RASUsed                       0                       # Number of times the RAS was used to get a target.
system.cpu.branchPred.RASIncorrect                  0                       # Number of incorrect RAS predictions.
system.cpu.branchPred.indirectLookups               0                       # Number of indirect predictor lookups.
system.cpu.branchPred.indirectHits                  0                       # Number of indirect target hits.
system.cpu.branchPred.indirectMisses                0                       # Number of indirect misses.
system.cpu.branchPred.indirectMispredicted            0                       # Number of mispredicted indirect branches.
system.cpu.branchPred.loop_predictor.correct            0                       # Number of times the loop predictor is the provider and the prediction is correct
system.cpu.branchPred.loop_predictor.wrong            0                       # Number of times the loop predictor is the provider and the prediction is wrong
system.cpu.branchPred.tage.longestMatchProviderCorrect            0                       # Number of times TAGE Longest Match is the provider and the prediction is correct
system.cpu.branchPred.tage.altMatchProviderCorrect            0                       # Number of times TAGE Alt Match is the provider and the prediction is correct
system.cpu.branchPred.tage.bimodalAltMatchProviderCorrect            0                       # Number of times TAGE Alt Match is the bimodal and it is the provider and the prediction is correct
system.cpu.branchPred.tage.bimodalProviderCorrect            0                       # Number of times there are no hits on the TAGE tables and the bimodal prediction is correct
system.cpu.branchPred.tage.longestMatchProviderWrong            0                       # Number of times TAGE Longest Match is the provider and the prediction is wrong
system.cpu.branchPred.tage.altMatchProviderWrong            0                       # Number of times TAGE Alt Match is the provider and the prediction is wrong
system.cpu.branchPred.tage.bimodalAltMatchProviderWrong            0                       # Number of times TAGE Alt Match is the bimodal and it is the provider and the prediction is wrong
system.cpu.branchPred.tage.bimodalProviderWrong            0                       # Number of times there are no hits on the TAGE tables and the bimodal prediction is wrong
system.cpu.branchPred.tage.altMatchProviderWouldHaveHit            0                       # Number of times TAGE Longest Match is the provider, the prediction is wrong and Alt Match prediction was correct
system.cpu.branchPred.tage.longestMatchProviderWouldHaveHit            0                       # Number of times TAGE Alt Match is the provider, the prediction is wrong and Longest Match prediction was correct
system.cpu.branchPred.tage.longestMatchProvider::0            0                       # TAGE provider for longest match
system.cpu.branchPred.tage.longestMatchProvider::1            0                       # TAGE provider for longest match
system.cpu.branchPred.tage.longestMatchProvider::2            0                       # TAGE provider for longest match
system.cpu.branchPred.tage.longestMatchProvider::3            0                       # TAGE provider for longest match
system.cpu.branchPred.tage.longestMatchProvider::4            0                       # TAGE provider for longest match
system.cpu.branchPred.tage.longestMatchProvider::5            0                       # TAGE provider for longest match
system.cpu.branchPred.tage.longestMatchProvider::6            0                       # TAGE provider for longest match
system.cpu.branchPred.tage.longestMatchProvider::7            0                       # TAGE provider for longest match
system.cpu.branchPred.tage.longestMatchProvider::8            0                       # TAGE provider for longest match
system.cpu.branchPred.tage.longestMatchProvider::9            0                       # TAGE provider for longest match
system.cpu.branchPred.tage.longestMatchProvider::10            0                       # TAGE provider for longest match
system.cpu.branchPred.tage.longestMatchProvider::11            0                       # TAGE provider for longest match
system.cpu.branchPred.tage.longestMatchProvider::12            0                       # TAGE provider for longest match
system.cpu.branchPred.tage.altMatchProvider::0            0                       # TAGE provider for alt match
system.cpu.branchPred.tage.altMatchProvider::1            0                       # TAGE provider for alt match
system.cpu.branchPred.tage.altMatchProvider::2            0                       # TAGE provider for alt match
system.cpu.branchPred.tage.altMatchProvider::3            0                       # TAGE provider for alt match
system.cpu.branchPred.tage.altMatchProvider::4            0                       # TAGE provider for alt match
system.cpu.branchPred.tage.altMatchProvider::5            0                       # TAGE provider for alt match
system.cpu.branchPred.tage.altMatchProvider::6            0                       # TAGE provider for alt match
system.cpu.branchPred.tage.altMatchProvider::7            0                       # TAGE provider for alt match
system.cpu.branchPred.tage.altMatchProvider::8            0                       # TAGE provider for alt match
system.cpu.branchPred.tage.altMatchProvider::9            0                       # TAGE provider for alt match
system.cpu.branchPred.tage.altMatchProvider::10            0                       # TAGE provider for alt match
system.cpu.branchPred.tage.altMatchProvider::11            0                       # TAGE provider for alt match
system.cpu.branchPred.tage.altMatchProvider::12            0                       # TAGE provider for alt match
system.cpu.dtb.rdAccesses                        4137                       # TLB accesses on read requests
system.cpu.dtb.wrAccesses                        1714                       # TLB accesses on write requests
system.cpu.dtb.rdMisses                           105                       # TLB misses on read requests
system.cpu.dtb.wrMisses                            30                       # TLB misses on write requests
system.cpu.dtb.walker.power_state.pwrStateResidencyTicks::UNDEFINED     95669000                       # Cumulative time (in ticks) in various power states
system.cpu.fetch2.intInstructions                2108                       # Number of integer instructions successfully decoded
system.cpu.fetch2.fpInstructions                    0                       # Number of floating point instructions successfully decoded
system.cpu.fetch2.vecInstructions                   0                       # Number of SIMD instructions successfully decoded
system.cpu.fetch2.loadInstructions                  0                       # Number of memory load instructions successfully decoded
system.cpu.fetch2.storeInstructions                 0                       # Number of memory store instructions successfully decoded
system.cpu.fetch2.amoInstructions                   0                       # Number of memory atomic instructions successfully decoded
system.cpu.interrupts.clk_domain.clock          16000                       # Clock period in ticks
system.cpu.itb.rdAccesses                           0                       # TLB accesses on read requests
system.cpu.itb.wrAccesses                       12813                       # TLB accesses on write requests
system.cpu.itb.rdMisses                             0                       # TLB misses on read requests
system.cpu.itb.wrMisses                            36                       # TLB misses on write requests
system.cpu.itb.walker.power_state.pwrStateResidencyTicks::UNDEFINED     95669000                       # Cumulative time (in ticks) in various power states
system.cpu.l1d.demand_hits::.cpu.data            5257                       # number of demand (read+write) hits
system.cpu.l1d.demand_hits::total                5257                       # number of demand (read+write) hits
system.cpu.l1d.overall_hits::.cpu.data           5257                       # number of overall hits
system.cpu.l1d.overall_hits::total               5257                       # number of overall hits
system.cpu.l1d.demand_misses::.cpu.data           334                       # number of demand (read+write) misses
system.cpu.l1d.demand_misses::total               334                       # number of demand (read+write) misses
system.cpu.l1d.overall_misses::.cpu.data          334                       # number of overall misses
system.cpu.l1d.overall_misses::total              334                       # number of overall misses
system.cpu.l1d.demand_miss_latency::.cpu.data     22426000                       # number of demand (read+write) miss cycles
system.cpu.l1d.demand_miss_latency::total     22426000                       # number of demand (read+write) miss cycles
system.cpu.l1d.overall_miss_latency::.cpu.data     22426000                       # number of overall miss cycles
system.cpu.l1d.overall_miss_latency::total     22426000                       # number of overall miss cycles
system.cpu.l1d.demand_accesses::.cpu.data         5591                       # number of demand (read+write) accesses
system.cpu.l1d.demand_accesses::total            5591                       # number of demand (read+write) accesses
system.cpu.l1d.overall_accesses::.cpu.data         5591                       # number of overall (read+write) accesses
system.cpu.l1d.overall_accesses::total           5591                       # number of overall (read+write) accesses
system.cpu.l1d.demand_miss_rate::.cpu.data     0.059739                       # miss rate for demand accesses
system.cpu.l1d.demand_miss_rate::total       0.059739                       # miss rate for demand accesses
system.cpu.l1d.overall_miss_rate::.cpu.data     0.059739                       # miss rate for overall accesses
system.cpu.l1d.overall_miss_rate::total      0.059739                       # miss rate for overall accesses
system.cpu.l1d.demand_avg_miss_latency::.cpu.data 67143.712575                       # average overall miss latency
system.cpu.l1d.demand_avg_miss_latency::total 67143.712575                       # average overall miss latency
system.cpu.l1d.overall_avg_miss_latency::.cpu.data 67143.712575                       # average overall miss latency
system.cpu.l1d.overall_avg_miss_latency::total 67143.712575                       # average overall miss latency
system.cpu.l1d.blocked_cycles::no_mshrs             0                       # number of cycles access was blocked
system.cpu.l1d.blocked_cycles::no_targets            0                       # number of cycles access was blocked
system.cpu.l1d.blocked::no_mshrs                    0                       # number of cycles access was blocked
system.cpu.l1d.blocked::no_targets                  0                       # number of cycles access was blocked
system.cpu.l1d.avg_blocked_cycles::no_mshrs          nan                       # average number of cycles each access was blocked
system.cpu.l1d.avg_blocked_cycles::no_targets          nan                       # average number of cycles each access was blocked
system.cpu.l1d.demand_mshr_hits::.cpu.data           99                       # number of demand (read+write) MSHR hits
system.cpu.l1d.demand_mshr_hits::total             99                       # number of demand (read+write) MSHR hits
system.cpu.l1d.overall_mshr_hits::.cpu.data           99                       # number of overall MSHR hits
system.cpu.l1d.overall_mshr_hits::total            99                       # number of overall MSHR hits
system.cpu.l1d.demand_mshr_misses::.cpu.data          235                       # number of demand (read+write) MSHR misses
system.cpu.l1d.demand_mshr_misses::total          235                       # number of demand (read+write) MSHR misses
system.cpu.l1d.overall_mshr_misses::.cpu.data          235                       # number of overall MSHR misses
system.cpu.l1d.overall_mshr_misses::total          235                       # number of overall MSHR misses
system.cpu.l1d.demand_mshr_miss_latency::.cpu.data     16199000                       # number of demand (read+write) MSHR miss cycles
system.cpu.l1d.demand_mshr_miss_latency::total     16199000                       # number of demand (read+write) MSHR miss cycles
system.cpu.l1d.overall_mshr_miss_latency::.cpu.data     16199000                       # number of overall MSHR miss cycles
system.cpu.l1d.overall_mshr_miss_latency::total     16199000                       # number of overall MSHR miss cycles
system.cpu.l1d.demand_mshr_miss_rate::.cpu.data     0.042032                       # mshr miss rate for demand accesses
system.cpu.l1d.demand_mshr_miss_rate::total     0.042032                       # mshr miss rate for demand accesses
system.cpu.l1d.overall_mshr_miss_rate::.cpu.data     0.042032                       # mshr miss rate for overall accesses
system.cpu.l1d.overall_mshr_miss_rate::total     0.042032                       # mshr miss rate for overall accesses
system.cpu.l1d.demand_avg_mshr_miss_latency::.cpu.data 68931.914894                       # average overall mshr miss latency
system.cpu.l1d.demand_avg_mshr_miss_latency::total 68931.914894                       # average overall mshr miss latency
system.cpu.l1d.overall_avg_mshr_miss_latency::.cpu.data 68931.914894                       # average overall mshr miss latency
system.cpu.l1d.overall_avg_mshr_miss_latency::total 68931.914894                       # average overall mshr miss latency
system.cpu.l1d.replacements                         0                       # number of replacements
system.cpu.l1d.ReadReq_hits::.cpu.data           3842                       # number of ReadReq hits
system.cpu.l1d.ReadReq_hits::total               3842                       # number of ReadReq hits
system.cpu.l1d.ReadReq_misses::.cpu.data          130                       # number of ReadReq misses
system.cpu.l1d.ReadReq_misses::total              130                       # number of ReadReq misses
system.cpu.l1d.ReadReq_miss_latency::.cpu.data      9369000                       # number of ReadReq miss cycles
system.cpu.l1d.ReadReq_miss_latency::total      9369000                       # number of ReadReq miss cycles
system.cpu.l1d.ReadReq_accesses::.cpu.data         3972                       # number of ReadReq accesses(hits+misses)
system.cpu.l1d.ReadReq_accesses::total           3972                       # number of ReadReq accesses(hits+misses)
system.cpu.l1d.ReadReq_miss_rate::.cpu.data     0.032729                       # miss rate for ReadReq accesses
system.cpu.l1d.ReadReq_miss_rate::total      0.032729                       # miss rate for ReadReq accesses
system.cpu.l1d.ReadReq_avg_miss_latency::.cpu.data 72069.230769                       # average ReadReq miss latency
system.cpu.l1d.ReadReq_avg_miss_latency::total 72069.230769                       # average ReadReq miss latency
system.cpu.l1d.ReadReq_mshr_hits::.cpu.data           15                       # number of ReadReq MSHR hits
system.cpu.l1d.ReadReq_mshr_hits::total            15                       # number of ReadReq MSHR hits
system.cpu.l1d.ReadReq_mshr_misses::.cpu.data          115                       # number of ReadReq MSHR misses
system.cpu.l1d.ReadReq_mshr_misses::total          115                       # number of ReadReq MSHR misses
system.cpu.l1d.ReadReq_mshr_miss_latency::.cpu.data      8202000                       # number of ReadReq MSHR miss cycles
system.cpu.l1d.ReadReq_mshr_miss_latency::total      8202000                       # number of ReadReq MSHR miss cycles
system.cpu.l1d.ReadReq_mshr_miss_rate::.cpu.data     0.028953                       # mshr miss rate for ReadReq accesses
system.cpu.l1d.ReadReq_mshr_miss_rate::total     0.028953                       # mshr miss rate for ReadReq accesses
system.cpu.l1d.ReadReq_avg_mshr_miss_latency::.cpu.data 71321.739130                       # average ReadReq mshr miss latency
system.cpu.l1d.ReadReq_avg_mshr_miss_latency::total 71321.739130                       # average ReadReq mshr miss latency
system.cpu.l1d.WriteReq_hits::.cpu.data          1415                       # number of WriteReq hits
system.cpu.l1d.WriteReq_hits::total              1415                       # number of WriteReq hits
system.cpu.l1d.WriteReq_misses::.cpu.data          204                       # number of WriteReq misses
system.cpu.l1d.WriteReq_misses::total             204                       # number of WriteReq misses
system.cpu.l1d.WriteReq_miss_latency::.cpu.data     13057000                       # number of WriteReq miss cycles
system.cpu.l1d.WriteReq_miss_latency::total     13057000                       # number of WriteReq miss cycles
system.cpu.l1d.WriteReq_accesses::.cpu.data         1619                       # number of WriteReq accesses(hits+misses)
system.cpu.l1d.WriteReq_accesses::total          1619                       # number of WriteReq accesses(hits+misses)
system.cpu.l1d.WriteReq_miss_rate::.cpu.data     0.126004                       # miss rate for WriteReq accesses
system.cpu.l1d.WriteReq_miss_rate::total     0.126004                       # miss rate for WriteReq accesses
system.cpu.l1d.WriteReq_avg_miss_latency::.cpu.data 64004.901961                       # average WriteReq miss latency
system.cpu.l1d.WriteReq_avg_miss_latency::total 64004.901961                       # average WriteReq miss latency
system.cpu.l1d.WriteReq_mshr_hits::.cpu.data           84                       # number of WriteReq MSHR hits
system.cpu.l1d.WriteReq_mshr_hits::total           84                       # number of WriteReq MSHR hits
system.cpu.l1d.WriteReq_mshr_misses::.cpu.data          120                       # number of WriteReq MSHR misses
system.cpu.l1d.WriteReq_mshr_misses::total          120                       # number of WriteReq MSHR misses
system.cpu.l1d.WriteReq_mshr_miss_latency::.cpu.data      7997000                       # number of WriteReq MSHR miss cycles
system.cpu.l1d.WriteReq_mshr_miss_latency::total      7997000                       # number of WriteReq MSHR miss cycles
system.cpu.l1d.WriteReq_mshr_miss_rate::.cpu.data     0.074120                       # mshr miss rate for WriteReq accesses
system.cpu.l1d.WriteReq_mshr_miss_rate::total     0.074120                       # mshr miss rate for WriteReq accesses
system.cpu.l1d.WriteReq_avg_mshr_miss_latency::.cpu.data 66641.666667                       # average WriteReq mshr miss latency
system.cpu.l1d.WriteReq_avg_mshr_miss_latency::total 66641.666667                       # average WriteReq mshr miss latency
system.cpu.l1d.power_state.pwrStateResidencyTicks::UNDEFINED     95669000                       # Cumulative time (in ticks) in various power states
system.cpu.l1d.tags.tagsinuse              161.540845                       # Cycle average of tags in use
system.cpu.l1d.tags.total_refs                      0                       # Total number of references to valid blocks.
system.cpu.l1d.tags.sampled_refs                    0                       # Sample count of references to valid blocks.
system.cpu.l1d.tags.avg_refs                      nan                       # Average number of references to valid blocks.
system.cpu.l1d.tags.warmup_cycle               156000                       # Cycle when the warmup percentage was hit.
system.cpu.l1d.tags.occ_blocks::.cpu.data   161.540845                       # Average occupied blocks per requestor
system.cpu.l1d.tags.occ_percent::.cpu.data     0.315509                       # Average percentage of cache occupancy
system.cpu.l1d.tags.occ_percent::total       0.315509                       # Average percentage of cache occupancy
system.cpu.l1d.tags.occ_task_id_blocks::1024          235                       # Occupied blocks per task id
system.cpu.l1d.tags.age_task_id_blocks_1024::0           16                       # Occupied blocks per task id
system.cpu.l1d.tags.age_task_id_blocks_1024::1          219                       # Occupied blocks per task id
system.cpu.l1d.tags.occ_task_id_percent::1024     0.458984                       # Percentage of cache occupancy per task id
system.cpu.l1d.tags.tag_accesses                44963                       # Number of tag accesses
system.cpu.l1d.tags.data_accesses               44963                       # Number of data accesses
system.cpu.l1d.tags.power_state.pwrStateResidencyTicks::UNDEFINED     95669000                       # Cumulative time (in ticks) in various power states
system.cpu.l1i.demand_hits::.cpu.inst           12244                       # number of demand (read+write) hits
system.cpu.l1i.demand_hits::total               12244                       # number of demand (read+write) hits
system.cpu.l1i.overall_hits::.cpu.inst          12244                       # number of overall hits
system.cpu.l1i.overall_hits::total              12244                       # number of overall hits
system.cpu.l1i.demand_misses::.cpu.inst           569                       # number of demand (read+write) misses
system.cpu.l1i.demand_misses::total               569                       # number of demand (read+write) misses
system.cpu.l1i.overall_misses::.cpu.inst          569                       # number of overall misses
system.cpu.l1i.overall_misses::total              569                       # number of overall misses
system.cpu.l1i.demand_miss_latency::.cpu.inst     38840000                       # number of demand (read+write) miss cycles
system.cpu.l1i.demand_miss_latency::total     38840000                       # number of demand (read+write) miss cycles
system.cpu.l1i.overall_miss_latency::.cpu.inst     38840000                       # number of overall miss cycles
system.cpu.l1i.overall_miss_latency::total     38840000                       # number of overall miss cycles
system.cpu.l1i.demand_accesses::.cpu.inst        12813                       # number of demand (read+write) accesses
system.cpu.l1i.demand_accesses::total           12813                       # number of demand (read+write) accesses
system.cpu.l1i.overall_accesses::.cpu.inst        12813                       # number of overall (read+write) accesses
system.cpu.l1i.overall_accesses::total          12813                       # number of overall (read+write) accesses
system.cpu.l1i.demand_miss_rate::.cpu.inst     0.044408                       # miss rate for demand accesses
system.cpu.l1i.demand_miss_rate::total       0.044408                       # miss rate for demand accesses
system.cpu.l1i.overall_miss_rate::.cpu.inst     0.044408                       # miss rate for overall accesses
system.cpu.l1i.overall_miss_rate::total      0.044408                       # miss rate for overall accesses
system.cpu.l1i.demand_avg_miss_latency::.cpu.inst 68260.105448                       # average overall miss latency
system.cpu.l1i.demand_avg_miss_latency::total 68260.105448                       # average overall miss latency
system.cpu.l1i.overall_avg_miss_latency::.cpu.inst 68260.105448                       # average overall miss latency
system.cpu.l1i.overall_avg_miss_latency::total 68260.105448                       # average overall miss latency
system.cpu.l1i.blocked_cycles::no_mshrs             0                       # number of cycles access was blocked
system.cpu.l1i.blocked_cycles::no_targets            0                       # number of cycles access was blocked
system.cpu.l1i.blocked::no_mshrs                    0                       # number of cycles access was blocked
system.cpu.l1i.blocked::no_targets                  0                       # number of cycles access was blocked
system.cpu.l1i.avg_blocked_cycles::no_mshrs          nan                       # average number of cycles each access was blocked
system.cpu.l1i.avg_blocked_cycles::no_targets          nan                       # average number of cycles each access was blocked
system.cpu.l1i.demand_mshr_misses::.cpu.inst          569                       # number of demand (read+write) MSHR misses
system.cpu.l1i.demand_mshr_misses::total          569                       # number of demand (read+write) MSHR misses
system.cpu.l1i.overall_mshr_misses::.cpu.inst          569                       # number of overall MSHR misses
system.cpu.l1i.overall_mshr_misses::total          569                       # number of overall MSHR misses
system.cpu.l1i.demand_mshr_miss_latency::.cpu.inst     38272000                       # number of demand (read+write) MSHR miss cycles
system.cpu.l1i.demand_mshr_miss_latency::total     38272000                       # number of demand (read+write) MSHR miss cycles
system.cpu.l1i.overall_mshr_miss_latency::.cpu.inst     38272000                       # number of overall MSHR miss cycles
system.cpu.l1i.overall_mshr_miss_latency::total     38272000                       # number of overall MSHR miss cycles
system.cpu.l1i.demand_mshr_miss_rate::.cpu.inst     0.044408                       # mshr miss rate for demand accesses
system.cpu.l1i.demand_mshr_miss_rate::total     0.044408                       # mshr miss rate for demand accesses
system.cpu.l1i.overall_mshr_miss_rate::.cpu.inst     0.044408                       # mshr miss rate for overall accesses
system.cpu.l1i.overall_mshr_miss_rate::total     0.044408                       # mshr miss rate for overall accesses
system.cpu.l1i.demand_avg_mshr_miss_latency::.cpu.inst 67261.862917                       # average overall mshr miss latency
system.cpu.l1i.demand_avg_mshr_miss_latency::total 67261.862917                       # average overall mshr miss latency
system.cpu.l1i.overall_avg_mshr_miss_latency::.cpu.inst 67261.862917                       # average overall mshr miss latency
system.cpu.l1i.overall_avg_mshr_miss_latency::total 67261.862917                       # average overall mshr miss latency
system.cpu.l1i.replacements                        82                       # number of replacements
system.cpu.l1i.ReadReq_hits::.cpu.inst          12244                       # number of ReadReq hits
system.cpu.l1i.ReadReq_hits::total              12244                       # number of ReadReq hits
system.cpu.l1i.ReadReq_misses::.cpu.inst          569                       # number of ReadReq misses
system.cpu.l1i.ReadReq_misses::total              569                       # number of ReadReq misses
system.cpu.l1i.ReadReq_miss_latency::.cpu.inst     38840000                       # number of ReadReq miss cycles
system.cpu.l1i.ReadReq_miss_latency::total     38840000                       # number of ReadReq miss cycles
system.cpu.l1i.ReadReq_accesses::.cpu.inst        12813                       # number of ReadReq accesses(hits+misses)
system.cpu.l1i.ReadReq_accesses::total          12813                       # number of ReadReq accesses(hits+misses)
system.cpu.l1i.ReadReq_miss_rate::.cpu.inst     0.044408                       # miss rate for ReadReq accesses
system.cpu.l1i.ReadReq_miss_rate::total      0.044408                       # miss rate for ReadReq accesses
system.cpu.l1i.ReadReq_avg_miss_latency::.cpu.inst 68260.105448                       # average ReadReq miss latency
system.cpu.l1i.ReadReq_avg_miss_latency::total 68260.105448                       # average ReadReq miss latency
system.cpu.l1i.ReadReq_mshr_misses::.cpu.inst          569                       # number of ReadReq MSHR misses
system.cpu.l1i.ReadReq_mshr_misses::total          569                       # number of ReadReq MSHR misses
system.cpu.l1i.ReadReq_mshr_miss_latency::.cpu.inst     38272000                       # number of ReadReq MSHR miss cycles
system.cpu.l1i.ReadReq_mshr_miss_latency::total     38272000                       # number of ReadReq MSHR miss cycles
system.cpu.l1i.ReadReq_mshr_miss_rate::.cpu.inst     0.044408                       # mshr miss rate for ReadReq accesses
system.cpu.l1i.ReadReq_mshr_miss_rate::total     0.044408                       # mshr miss rate for ReadReq accesses
system.cpu.l1i.ReadReq_avg_mshr_miss_latency::.cpu.inst 67261.862917                       # average ReadReq mshr miss latency
system.cpu.l1i.ReadReq_avg_mshr_miss_latency::total 67261.862917                       # average ReadReq mshr miss latency
system.cpu.l1i.power_state.pwrStateResidencyTicks::UNDEFINED     95669000                       # Cumulative time (in ticks) in various power states
system.cpu.l1i.tags.tagsinuse              331.657351                       # Cycle average of tags in use
system.cpu.l1i.tags.total_refs                    501                       # Total number of references to valid blocks.
system.cpu.l1i.tags.sampled_refs                   82                       # Sample count of references to valid blocks.
system.cpu.l1i.tags.avg_refs                 6.109756                       # Average number of references to valid blocks.
system.cpu.l1i.tags.warmup_cycle                76000                       # Cycle when the warmup percentage was hit.
system.cpu.l1i.tags.occ_blocks::.cpu.inst   331.657351                       # Average occupied blocks per requestor
system.cpu.l1i.tags.occ_percent::.cpu.inst     0.647768                       # Average percentage of cache occupancy
system.cpu.l1i.tags.occ_percent::total       0.647768                       # Average percentage of cache occupancy
system.cpu.l1i.tags.occ_task_id_blocks::1024          486                       # Occupied blocks per task id
system.cpu.l1i.tags.age_task_id_blocks_1024::0           48                       # Occupied blocks per task id
system.cpu.l1i.tags.age_task_id_blocks_1024::1          438                       # Occupied blocks per task id
system.cpu.l1i.tags.occ_task_id_percent::1024     0.949219                       # Percentage of cache occupancy per task id
system.cpu.l1i.tags.tag_accesses               103072                       # Number of tag accesses
system.cpu.l1i.tags.data_accesses              103072                       # Number of data accesses
system.cpu.l1i.tags.power_state.pwrStateResidencyTicks::UNDEFINED     95669000                       # Cumulative time (in ticks) in various power states
system.cpu.power_state.pwrStateResidencyTicks::ON     95669000                       # Cumulative time (in ticks) in various power states
system.cpu.thread_0.numInsts                    22702                       # Number of Instructions committed
system.cpu.thread_0.numOps                      44919                       # Number of Ops committed
system.cpu.thread_0.numMemRefs                      0                       # Number of Memory References
system.l1_to_l2.trans_dist::ReadResp              683                       # Transaction distribution
system.l1_to_l2.trans_dist::CleanEvict             82                       # Transaction distribution
system.l1_to_l2.trans_dist::ReadExReq             120                       # Transaction distribution
system.l1_to_l2.trans_dist::ReadExResp            120                       # Transaction distribution
system.l1_to_l2.trans_dist::ReadSharedReq          684                       # Transaction distribution
system.l1_to_l2.pkt_count_system.cpu.l1d.mem_side_port::system.l2cache.cpu_side_port          470                       # Packet count per connected requestor and responder (bytes)
system.l1_to_l2.pkt_count_system.cpu.l1i.mem_side_port::system.l2cache.cpu_side_port         1219                       # Packet count per connected requestor and responder (bytes)
system.l1_to_l2.pkt_count::total                 1689                       # Packet count per connected requestor and responder (bytes)
system.l1_to_l2.pkt_size_system.cpu.l1d.mem_side_port::system.l2cache.cpu_side_port        15040                       # Cumulative packet size per connected requestor and responder (bytes)
system.l1_to_l2.pkt_size_system.cpu.l1i.mem_side_port::system.l2cache.cpu_side_port        36352                       # Cumulative packet size per connected requestor and responder (bytes)
system.l1_to_l2.pkt_size::total                 51392                       # Cumulative packet size per connected requestor and responder (bytes)
system.l1_to_l2.snoops                              0                       # Total snoops (count)
system.l1_to_l2.snoopTraffic                        0                       # Total snoop traffic (bytes)
system.l1_to_l2.snoop_fanout::samples             804                       # Request fanout histogram
system.l1_to_l2.snoop_fanout::mean                  0                       # Request fanout histogram
system.l1_to_l2.snoop_fanout::stdev                 0                       # Request fanout histogram
system.l1_to_l2.snoop_fanout::underflows            0      0.00%      0.00% # Request fanout histogram
system.l1_to_l2.snoop_fanout::0                   804    100.00%    100.00% # Request fanout histogram
system.l1_to_l2.snoop_fanout::1                     0      0.00%    100.00% # Request fanout histogram
system.l1_to_l2.snoop_fanout::2                     0      0.00%    100.00% # Request fanout histogram
system.l1_to_l2.snoop_fanout::overflows             0      0.00%    100.00% # Request fanout histogram
system.l1_to_l2.snoop_fanout::min_value             0                       # Request fanout histogram
system.l1_to_l2.snoop_fanout::max_value             0                       # Request fanout histogram
system.l1_to_l2.snoop_fanout::total               804                       # Request fanout histogram
system.l1_to_l2.power_state.pwrStateResidencyTicks::UNDEFINED     95669000                       # Cumulative time (in ticks) in various power states
system.l1_to_l2.reqLayer0.occupancy            886000                       # Layer occupancy (ticks)
system.l1_to_l2.reqLayer0.utilization             0.9                       # Layer utilization (%)
system.l1_to_l2.respLayer0.occupancy           470000                       # Layer occupancy (ticks)
system.l1_to_l2.respLayer0.utilization            0.5                       # Layer utilization (%)
system.l1_to_l2.respLayer1.occupancy          1136000                       # Layer occupancy (ticks)
system.l1_to_l2.respLayer1.utilization            1.2                       # Layer utilization (%)
system.l2cache.demand_hits::.cpu.inst               6                       # number of demand (read+write) hits
system.l2cache.demand_hits::total                   6                       # number of demand (read+write) hits
system.l2cache.overall_hits::.cpu.inst              6                       # number of overall hits
system.l2cache.overall_hits::total                  6                       # number of overall hits
system.l2cache.demand_misses::.cpu.inst           563                       # number of demand (read+write) misses
system.l2cache.demand_misses::.cpu.data           235                       # number of demand (read+write) misses
system.l2cache.demand_misses::total               798                       # number of demand (read+write) misses
system.l2cache.overall_misses::.cpu.inst          563                       # number of overall misses
system.l2cache.overall_misses::.cpu.data          235                       # number of overall misses
system.l2cache.overall_misses::total              798                       # number of overall misses
system.l2cache.demand_miss_latency::.cpu.inst     37070000                       # number of demand (read+write) miss cycles
system.l2cache.demand_miss_latency::.cpu.data     15729000                       # number of demand (read+write) miss cycles
system.l2cache.demand_miss_latency::total     52799000                       # number of demand (read+write) miss cycles
system.l2cache.overall_miss_latency::.cpu.inst     37070000                       # number of overall miss cycles
system.l2cache.overall_miss_latency::.cpu.data     15729000                       # number of overall miss cycles
system.l2cache.overall_miss_latency::total     52799000                       # number of overall miss cycles
system.l2cache.demand_accesses::.cpu.inst          569                       # number of demand (read+write) accesses
system.l2cache.demand_accesses::.cpu.data          235                       # number of demand (read+write) accesses
system.l2cache.demand_accesses::total             804                       # number of demand (read+write) accesses
system.l2cache.overall_accesses::.cpu.inst          569                       # number of overall (read+write) accesses
system.l2cache.overall_accesses::.cpu.data          235                       # number of overall (read+write) accesses
system.l2cache.overall_accesses::total            804                       # number of overall (read+write) accesses
system.l2cache.demand_miss_rate::.cpu.inst     0.989455                       # miss rate for demand accesses
system.l2cache.demand_miss_rate::.cpu.data            1                       # miss rate for demand accesses
system.l2cache.demand_miss_rate::total       0.992537                       # miss rate for demand accesses
system.l2cache.overall_miss_rate::.cpu.inst     0.989455                       # miss rate for overall accesses
system.l2cache.overall_miss_rate::.cpu.data            1                       # miss rate for overall accesses
system.l2cache.overall_miss_rate::total      0.992537                       # miss rate for overall accesses
system.l2cache.demand_avg_miss_latency::.cpu.inst 65843.694494                       # average overall miss latency
system.l2cache.demand_avg_miss_latency::.cpu.data 66931.914894                       # average overall miss latency
system.l2cache.demand_avg_miss_latency::total 66164.160401                       # average overall miss latency
system.l2cache.overall_avg_miss_latency::.cpu.inst 65843.694494                       # average overall miss latency
system.l2cache.overall_avg_miss_latency::.cpu.data 66931.914894                       # average overall miss latency
system.l2cache.overall_avg_miss_latency::total 66164.160401                       # average overall miss latency
system.l2cache.blocked_cycles::no_mshrs             0                       # number of cycles access was blocked
system.l2cache.blocked_cycles::no_targets            0                       # number of cycles access was blocked
system.l2cache.blocked::no_mshrs                    0                       # number of cycles access was blocked
system.l2cache.blocked::no_targets                  0                       # number of cycles access was blocked
system.l2cache.avg_blocked_cycles::no_mshrs          nan                       # average number of cycles each access was blocked
system.l2cache.avg_blocked_cycles::no_targets          nan                       # average number of cycles each access was blocked
system.l2cache.demand_mshr_misses::.cpu.inst          563                       # number of demand (read+write) MSHR misses
system.l2cache.demand_mshr_misses::.cpu.data          235                       # number of demand (read+write) MSHR misses
system.l2cache.demand_mshr_misses::total          798                       # number of demand (read+write) MSHR misses
system.l2cache.overall_mshr_misses::.cpu.inst          563                       # number of overall MSHR misses
system.l2cache.overall_mshr_misses::.cpu.data          235                       # number of overall MSHR misses
system.l2cache.overall_mshr_misses::total          798                       # number of overall MSHR misses
system.l2cache.demand_mshr_miss_latency::.cpu.inst     36508000                       # number of demand (read+write) MSHR miss cycles
system.l2cache.demand_mshr_miss_latency::.cpu.data     15494000                       # number of demand (read+write) MSHR miss cycles
system.l2cache.demand_mshr_miss_latency::total     52002000                       # number of demand (read+write) MSHR miss cycles
system.l2cache.overall_mshr_miss_latency::.cpu.inst     36508000                       # number of overall MSHR miss cycles
system.l2cache.overall_mshr_miss_latency::.cpu.data     15494000                       # number of overall MSHR miss cycles
system.l2cache.overall_mshr_miss_latency::total     52002000                       # number of overall MSHR miss cycles
system.l2cache.demand_mshr_miss_rate::.cpu.inst     0.989455                       # mshr miss rate for demand accesses
system.l2cache.demand_mshr_miss_rate::.cpu.data            1                       # mshr miss rate for demand accesses
system.l2cache.demand_mshr_miss_rate::total     0.992537                       # mshr miss rate for demand accesses
system.l2cache.overall_mshr_miss_rate::.cpu.inst     0.989455                       # mshr miss rate for overall accesses
system.l2cache.overall_mshr_miss_rate::.cpu.data            1                       # mshr miss rate for overall accesses
system.l2cache.overall_mshr_miss_rate::total     0.992537                       # mshr miss rate for overall accesses
system.l2cache.demand_avg_mshr_miss_latency::.cpu.inst 64845.470693                       # average overall mshr miss latency
system.l2cache.demand_avg_mshr_miss_latency::.cpu.data 65931.914894                       # average overall mshr miss latency
system.l2cache.demand_avg_mshr_miss_latency::total 65165.413534                       # average overall mshr miss latency
system.l2cache.overall_avg_mshr_miss_latency::.cpu.inst 64845.470693                       # average overall mshr miss latency
system.l2cache.overall_avg_mshr_miss_latency::.cpu.data 65931.914894                       # average overall mshr miss latency
system.l2cache.overall_avg_mshr_miss_latency::total 65165.413534                       # average overall mshr miss latency
system.l2cache.replacements                         0                       # number of replacements
system.l2cache.ReadExReq_misses::.cpu.data          120                       # number of ReadExReq misses
system.l2cache.ReadExReq_misses::total            120                       # number of ReadExReq misses
system.l2cache.ReadExReq_miss_latency::.cpu.data      7757000                       # number of ReadExReq miss cycles
system.l2cache.ReadExReq_miss_latency::total      7757000                       # number of ReadExReq miss cycles
system.l2cache.ReadExReq_accesses::.cpu.data          120                       # number of ReadExReq accesses(hits+misses)
system.l2cache.ReadExReq_accesses::total          120                       # number of ReadExReq accesses(hits+misses)
system.l2cache.ReadExReq_miss_rate::.cpu.data            1                       # miss rate for ReadExReq accesses
system.l2cache.ReadExReq_miss_rate::total            1                       # miss rate for ReadExReq accesses
system.l2cache.ReadExReq_avg_miss_latency::.cpu.data 64641.666667                       # average ReadExReq miss latency
system.l2cache.ReadExReq_avg_miss_latency::total 64641.666667                       # average ReadExReq miss latency
system.l2cache.ReadExReq_mshr_misses::.cpu.data          120                       # number of ReadExReq MSHR misses
system.l2cache.ReadExReq_mshr_misses::total          120                       # number of ReadExReq MSHR misses
system.l2cache.ReadExReq_mshr_miss_latency::.cpu.data      7637000                       # number of ReadExReq MSHR miss cycles
system.l2cache.ReadExReq_mshr_miss_latency::total      7637000                       # number of ReadExReq MSHR miss cycles
system.l2cache.ReadExReq_mshr_miss_rate::.cpu.data            1                       # mshr miss rate for ReadExReq accesses
system.l2cache.ReadExReq_mshr_miss_rate::total            1                       # mshr miss rate for ReadExReq accesses
system.l2cache.ReadExReq_avg_mshr_miss_latency::.cpu.data 63641.666667                       # average ReadExReq mshr miss latency
system.l2cache.ReadExReq_avg_mshr_miss_latency::total 63641.666667                       # average ReadExReq mshr miss latency
system.l2cache.ReadSharedReq_hits::.cpu.inst            6                       # number of ReadSharedReq hits
system.l2cache.ReadSharedReq_hits::total            6                       # number of ReadSharedReq hits
system.l2cache.ReadSharedReq_misses::.cpu.inst          563                       # number of ReadSharedReq misses
system.l2cache.ReadSharedReq_misses::.cpu.data          115                       # number of ReadSharedReq misses
system.l2cache.ReadSharedReq_misses::total          678                       # number of ReadSharedReq misses
system.l2cache.ReadSharedReq_miss_latency::.cpu.inst     37070000                       # number of ReadSharedReq miss cycles
system.l2cache.ReadSharedReq_miss_latency::.cpu.data      7972000                       # number of ReadSharedReq miss cycles
system.l2cache.ReadSharedReq_miss_latency::total     45042000                       # number of ReadSharedReq miss cycles
system.l2cache.ReadSharedReq_accesses::.cpu.inst          569                       # number of ReadSharedReq accesses(hits+misses)
system.l2cache.ReadSharedReq_accesses::.cpu.data          115                       # number of ReadSharedReq accesses(hits+misses)
system.l2cache.ReadSharedReq_accesses::total          684                       # number of ReadSharedReq accesses(hits+misses)
system.l2cache.ReadSharedReq_miss_rate::.cpu.inst     0.989455                       # miss rate for ReadSharedReq accesses
system.l2cache.ReadSharedReq_miss_rate::.cpu.data            1                       # miss rate for ReadSharedReq accesses
system.l2cache.ReadSharedReq_miss_rate::total     0.991228                       # miss rate for ReadSharedReq accesses
system.l2cache.ReadSharedReq_avg_miss_latency::.cpu.inst 65843.694494                       # average ReadSharedReq miss latency
system.l2cache.ReadSharedReq_avg_miss_latency::.cpu.data 69321.739130                       # average ReadSharedReq miss latency
system.l2cache.ReadSharedReq_avg_miss_latency::total 66433.628319                       # average ReadSharedReq miss latency
system.l2cache.ReadSharedReq_mshr_misses::.cpu.inst          563                       # number of ReadSharedReq MSHR misses
system.l2cache.ReadSharedReq_mshr_misses::.cpu.data          115                       # number of ReadSharedReq MSHR misses
system.l2cache.ReadSharedReq_mshr_misses::total          678                       # number of ReadSharedReq MSHR misses
system.l2cache.ReadSharedReq_mshr_miss_latency::.cpu.inst     36508000                       # number of ReadSharedReq MSHR miss cycles
system.l2cache.ReadSharedReq_mshr_miss_latency::.cpu.data      7857000                       # number of ReadSharedReq MSHR miss cycles
system.l2cache.ReadSharedReq_mshr_miss_latency::total     44365000                       # number of ReadSharedReq MSHR miss cycles
system.l2cache.ReadSharedReq_mshr_miss_rate::.cpu.inst     0.989455                       # mshr miss rate for ReadSharedReq accesses
system.l2cache.ReadSharedReq_mshr_miss_rate::.cpu.data            1                       # mshr miss rate for ReadSharedReq accesses
system.l2cache.ReadSharedReq_mshr_miss_rate::total     0.991228                       # mshr miss rate for ReadSharedReq accesses
system.l2cache.ReadSharedReq_avg_mshr_miss_latency::.cpu.inst 64845.470693                       # average ReadSharedReq mshr miss latency
system.l2cache.ReadSharedReq_avg_mshr_miss_latency::.cpu.data 68321.739130                       # average ReadSharedReq mshr miss latency
system.l2cache.ReadSharedReq_avg_mshr_miss_latency::total 65435.103245                       # average ReadSharedReq mshr miss latency
system.l2cache.power_state.pwrStateResidencyTicks::UNDEFINED     95669000                       # Cumulative time (in ticks) in various power states
system.l2cache.tags.tagsinuse              519.466758                       # Cycle average of tags in use
system.l2cache.tags.total_refs                      0                       # Total number of references to valid blocks.
system.l2cache.tags.sampled_refs                    0                       # Sample count of references to valid blocks.
system.l2cache.tags.avg_refs                      nan                       # Average number of references to valid blocks.
system.l2cache.tags.warmup_cycle                74000                       # Cycle when the warmup percentage was hit.
system.l2cache.tags.occ_blocks::.cpu.inst   357.921001                       # Average occupied blocks per requestor
system.l2cache.tags.occ_blocks::.cpu.data   161.545757                       # Average occupied blocks per requestor
system.l2cache.tags.occ_percent::.cpu.inst     0.021846                       # Average percentage of cache occupancy
system.l2cache.tags.occ_percent::.cpu.data     0.009860                       # Average percentage of cache occupancy
system.l2cache.tags.occ_percent::total       0.031706                       # Average percentage of cache occupancy
system.l2cache.tags.occ_task_id_blocks::1024          797                       # Occupied blocks per task id
system.l2cache.tags.age_task_id_blocks_1024::0           63                       # Occupied blocks per task id
system.l2cache.tags.age_task_id_blocks_1024::1          734                       # Occupied blocks per task id
system.l2cache.tags.occ_task_id_percent::1024     0.048645                       # Percentage of cache occupancy per task id
system.l2cache.tags.tag_accesses                14973                       # Number of tag accesses
system.l2cache.tags.data_accesses               14973                       # Number of data accesses
system.l2cache.tags.power_state.pwrStateResidencyTicks::UNDEFINED     95669000                       # Cumulative time (in ticks) in various power states
system.mem_ctrl.avgPriority_.cpu.inst::samples       562.00                       # Average QoS priority value for accepted requests
system.mem_ctrl.avgPriority_.cpu.data::samples       235.00                       # Average QoS priority value for accepted requests
system.mem_ctrl.priorityMinLatency       0.000000016842                       # per QoS priority minimum request to response latency (s)
system.mem_ctrl.priorityMaxLatency       0.000000544204                       # per QoS priority maximum request to response latency (s)
system.mem_ctrl.numReadWriteTurnArounds             0                       # Number of turnarounds from READ to WRITE
system.mem_ctrl.numWriteReadTurnArounds             0                       # Number of turnarounds from WRITE to READ
system.mem_ctrl.numStayReadState                 1616                       # Number of times bus staying in READ state
system.mem_ctrl.numStayWriteState                   0                       # Number of times bus staying in WRITE state
system.mem_ctrl.readReqs                          797                       # Number of read requests accepted
system.mem_ctrl.writeReqs                           0                       # Number of write requests accepted
system.mem_ctrl.readBursts                        797                       # Number of controller read bursts, including those serviced by the write queue
system.mem_ctrl.writeBursts                         0                       # Number of controller write bursts, including those merged in the write queue
system.mem_ctrl.servicedByWrQ                       0                       # Number of controller read bursts serviced by the write queue
system.mem_ctrl.mergedWrBursts                      0                       # Number of controller write bursts merged with an existing one
system.mem_ctrl.neitherReadNorWriteReqs             0                       # Number of requests that are neither read nor write
system.mem_ctrl.avgRdQLen                        1.07                       # Average read queue length when enqueuing
system.mem_ctrl.avgWrQLen                        0.00                       # Average write queue length when enqueuing
system.mem_ctrl.numRdRetry                          0                       # Number of times read queue was full causing retry
system.mem_ctrl.numWrRetry                          0                       # Number of times write queue was full causing retry
system.mem_ctrl.readPktSize::0                      0                       # Read request sizes (log2)
system.mem_ctrl.readPktSize::1                      0                       # Read request sizes (log2)
system.mem_ctrl.readPktSize::2                      0                       # Read request sizes (log2)
system.mem_ctrl.readPktSize::3                      0                       # Read request sizes (log2)
system.mem_ctrl.readPktSize::4                      0                       # Read request sizes (log2)
system.mem_ctrl.readPktSize::5                      0                       # Read request sizes (log2)
system.mem_ctrl.readPktSize::6                    797                       # Read request sizes (log2)
system.mem_ctrl.writePktSize::0                     0                       # Write request sizes (log2)
system.mem_ctrl.writePktSize::1                     0                       # Write request sizes (log2)
system.mem_ctrl.writePktSize::2                     0                       # Write request sizes (log2)
system.mem_ctrl.writePktSize::3                     0                       # Write request sizes (log2)
system.mem_ctrl.writePktSize::4                     0                       # Write request sizes (log2)
system.mem_ctrl.writePktSize::5                     0                       # Write request sizes (log2)
system.mem_ctrl.writePktSize::6                     0                       # Write request sizes (log2)
system.mem_ctrl.rdQLenPdf::0                      720                       # What read queue length does an incoming req see
system.mem_ctrl.rdQLenPdf::1                       75                       # What read queue length does an incoming req see
system.mem_ctrl.rdQLenPdf::2                        2                       # What read queue length does an incoming req see
system.mem_ctrl.rdQLenPdf::3                        0                       # What read queue length does an incoming req see
system.mem_ctrl.rdQLenPdf::4                        0                       # What read queue length does an incoming req see
system.mem_ctrl.rdQLenPdf::5                        0                       # What read queue length does an incoming req see
system.mem_ctrl.rdQLenPdf::6                        0                       # What read queue length does an incoming req see
system.mem_ctrl.rdQLenPdf::7                        0                       # What read queue length does an incoming req see
system.mem_ctrl.rdQLenPdf::8                        0                       # What read queue length does an incoming req see
system.mem_ctrl.rdQLenPdf::9                        0                       # What read queue length does an incoming req see
system.mem_ctrl.rdQLenPdf::10                       0                       # What read queue length does an incoming req see
system.mem_ctrl.rdQLenPdf::11                       0                       # What read queue length does an incoming req see
system.mem_ctrl.rdQLenPdf::12                       0                       # What read queue length does an incoming req see
system.mem_ctrl.rdQLenPdf::13                       0                       # What read queue length does an incoming req see
system.mem_ctrl.rdQLenPdf::14                       0                       # What read queue length does an incoming req see
system.mem_ctrl.rdQLenPdf::15                       0                       # What read queue length does an incoming req see
system.mem_ctrl.rdQLenPdf::16                       0                       # What read queue length does an incoming req see
system.mem_ctrl.rdQLenPdf::17                       0                       # What read queue length does an incoming req see
system.mem_ctrl.rdQLenPdf::18                       0                       # What read queue length does an incoming req see
system.mem_ctrl.rdQLenPdf::19                       0                       # What read queue length does an incoming req see
system.mem_ctrl.rdQLenPdf::20                       0                       # What read queue length does an incoming req see
system.mem_ctrl.rdQLenPdf::21                       0                       # What read queue length does an incoming req see
system.mem_ctrl.rdQLenPdf::22                       0                       # What read queue length does an incoming req see
system.mem_ctrl.rdQLenPdf::23                       0                       # What read queue length does an incoming req see
system.mem_ctrl.rdQLenPdf::24                       0                       # What read queue length does an incoming req see
system.mem_ctrl.rdQLenPdf::25                       0                       # What read queue length does an incoming req see
system.mem_ctrl.rdQLenPdf::26                       0                       # What read queue length does an incoming req see
system.mem_ctrl.rdQLenPdf::27                       0                       # What read queue length does an incoming req see
system.mem_ctrl.rdQLenPdf::28                       0                       # What read queue length does an incoming req see
system.mem_ctrl.rdQLenPdf::29                       0                       # What read queue length does an incoming req see
system.mem_ctrl.rdQLenPdf::30                       0                       # What read queue length does an incoming req see
system.mem_ctrl.rdQLenPdf::31                       0                       # What read queue length does an incoming req see
system.mem_ctrl.wrQLenPdf::0                        0                       # What write queue length does an incoming req see
system.mem_ctrl.wrQLenPdf::1                        0                       # What write queue length does an incoming req see
system.mem_ctrl.wrQLenPdf::2                        0                       # What write queue length does an incoming req see
system.mem_ctrl.wrQLenPdf::3                        0                       # What write queue length does an incoming req see
system.mem_ctrl.wrQLenPdf::4                        0                       # What write queue length does an incoming req see
system.mem_ctrl.wrQLenPdf::5                        0                       # What write queue length does an incoming req see
system.mem_ctrl.wrQLenPdf::6                        0                       # What write queue length does an incoming req see
system.mem_ctrl.wrQLenPdf::7                        0                       # What write queue length does an incoming req see
system.mem_ctrl.wrQLenPdf::8                        0                       # What write queue length does an incoming req see
system.mem_ctrl.wrQLenPdf::9                        0                       # What write queue length does an incoming req see
system.mem_ctrl.wrQLenPdf::10                       0                       # What write queue length does an incoming req see
system.mem_ctrl.wrQLenPdf::11                       0                       # What write queue length does an incoming req see
system.mem_ctrl.wrQLenPdf::12                       0                       # What write queue length does an incoming req see
system.mem_ctrl.wrQLenPdf::13                       0                       # What write queue length does an incoming req see
system.mem_ctrl.wrQLenPdf::14                       0                       # What write queue length does an incoming req see
system.mem_ctrl.wrQLenPdf::15                       0                       # What write queue length does an incoming req see
system.mem_ctrl.wrQLenPdf::16                       0                       # What write queue length does an incoming req see
system.mem_ctrl.wrQLenPdf::17                       0                       # What write queue length does an incoming req see
system.mem_ctrl.wrQLenPdf::18                       0                       # What write queue length does an incoming req see
system.mem_ctrl.wrQLenPdf::19                       0                       # What write queue length does an incoming req see
system.mem_ctrl.wrQLenPdf::20                       0                       # What write queue length does an incoming req see
system.mem_ctrl.wrQLenPdf::21                       0                       # What write queue length does an incoming req see
system.mem_ctrl.wrQLenPdf::22                       0                       # What write queue length does an incoming req see
system.mem_ctrl.wrQLenPdf::23                       0                       # What write queue length does an incoming req see
system.mem_ctrl.wrQLenPdf::24                       0                       # What write queue length does an incoming req see
system.mem_ctrl.wrQLenPdf::25                       0                       # What write queue length does an incoming req see
system.mem_ctrl.wrQLenPdf::26                       0                       # What write queue length does an incoming req see
system.mem_ctrl.wrQLenPdf::27                       0                       # What write queue length does an incoming req see
system.mem_ctrl.wrQLenPdf::28                       0                       # What write queue length does an incoming req see
system.mem_ctrl.wrQLenPdf::29                       0                       # What write queue length does an incoming req see
system.mem_ctrl.wrQLenPdf::30                       0                       # What write queue length does an incoming req see
system.mem_ctrl.wrQLenPdf::31                       0                       # What write queue length does an incoming req see
system.mem_ctrl.wrQLenPdf::32                       0                       # What write queue length does an incoming req see
system.mem_ctrl.wrQLenPdf::33                       0                       # What write queue length does an incoming req see
system.mem_ctrl.wrQLenPdf::34                       0                       # What write queue length does an incoming req see
system.mem_ctrl.wrQLenPdf::35                       0                       # What write queue length does an incoming req see
system.mem_ctrl.wrQLenPdf::36                       0                       # What write queue length does an incoming req see
system.mem_ctrl.wrQLenPdf::37                       0                       # What write queue length does an incoming req see
system.mem_ctrl.wrQLenPdf::38                       0                       # What write queue length does an incoming req see
system.mem_ctrl.wrQLenPdf::39                       0                       # What write queue length does an incoming req see
system.mem_ctrl.wrQLenPdf::40                       0                       # What write queue length does an incoming req see
system.mem_ctrl.wrQLenPdf::41                       0                       # What write queue length does an incoming req see
system.mem_ctrl.wrQLenPdf::42                       0                       # What write queue length does an incoming req see
system.mem_ctrl.wrQLenPdf::43                       0                       # What write queue length does an incoming req see
system.mem_ctrl.wrQLenPdf::44                       0                       # What write queue length does an incoming req see
system.mem_ctrl.wrQLenPdf::45                       0                       # What write queue length does an incoming req see
system.mem_ctrl.wrQLenPdf::46                       0                       # What write queue length does an incoming req see
system.mem_ctrl.wrQLenPdf::47                       0                       # What write queue length does an incoming req see
system.mem_ctrl.wrQLenPdf::48                       0                       # What write queue length does an incoming req see
system.mem_ctrl.wrQLenPdf::49                       0                       # What write queue length does an incoming req see
system.mem_ctrl.wrQLenPdf::50                       0                       # What write queue length does an incoming req see
system.mem_ctrl.wrQLenPdf::51                       0                       # What write queue length does an incoming req see
system.mem_ctrl.wrQLenPdf::52                       0                       # What write queue length does an incoming req see
system.mem_ctrl.wrQLenPdf::53                       0                       # What write queue length does an incoming req see
system.mem_ctrl.wrQLenPdf::54                       0                       # What write queue length does an incoming req see
system.mem_ctrl.wrQLenPdf::55                       0                       # What write queue length does an incoming req see
system.mem_ctrl.wrQLenPdf::56                       0                       # What write queue length does an incoming req see
system.mem_ctrl.wrQLenPdf::57                       0                       # What write queue length does an incoming req see
system.mem_ctrl.wrQLenPdf::58                       0                       # What write queue length does an incoming req see
system.mem_ctrl.wrQLenPdf::59                       0                       # What write queue length does an incoming req see
system.mem_ctrl.wrQLenPdf::60                       0                       # What write queue length does an incoming req see
system.mem_ctrl.wrQLenPdf::61                       0                       # What write queue length does an incoming req see
system.mem_ctrl.wrQLenPdf::62                       0                       # What write queue length does an incoming req see
system.mem_ctrl.wrQLenPdf::63                       0                       # What write queue length does an incoming req see
system.mem_ctrl.bytesReadWrQ                        0                       # Total number of bytes read from write queue
system.mem_ctrl.bytesReadSys                    51008                       # Total read bytes from the system interface side
system.mem_ctrl.bytesWrittenSys                     0                       # Total written bytes from the system interface side
system.mem_ctrl.avgRdBWSys                     533.17                       # Average system read bandwidth in MiByte/s
system.mem_ctrl.avgWrBWSys                       0.00                       # Average system write bandwidth in MiByte/s
system.mem_ctrl.totGap                       95596000                       # Total gap between requests
system.mem_ctrl.avgGap                      119944.79                       # Average gap between requests
system.mem_ctrl.requestorReadBytes::.cpu.inst        35968                       # Per-requestor bytes read from memory
system.mem_ctrl.requestorReadBytes::.cpu.data        15040                       # Per-requestor bytes read from memory
system.mem_ctrl.requestorReadRate::.cpu.inst 375962955.607354521751                       # Per-requestor bytes read from memory rate (Bytes/sec)
system.mem_ctrl.requestorReadRate::.cpu.data 157208709.195246130228                       # Per-requestor bytes read from memory rate (Bytes/sec)
system.mem_ctrl.requestorReadAccesses::.cpu.inst          562                       # Per-requestor read serviced memory accesses
system.mem_ctrl.requestorReadAccesses::.cpu.data          235                       # Per-requestor read serviced memory accesses
system.mem_ctrl.requestorReadTotalLat::.cpu.inst     13341394                       # Per-requestor read total memory access latency
system.mem_ctrl.requestorReadTotalLat::.cpu.data      5789874                       # Per-requestor read total memory access latency
system.mem_ctrl.requestorReadAvgLat::.cpu.inst     23739.14                       # Per-requestor read average memory access latency
system.mem_ctrl.requestorReadAvgLat::.cpu.data     24637.76                       # Per-requestor read average memory access latency
system.mem_ctrl.dram.bytes_read::.cpu.inst        35968                       # Number of bytes read from this memory
system.mem_ctrl.dram.bytes_read::.cpu.data        15040                       # Number of bytes read from this memory
system.mem_ctrl.dram.bytes_read::total          51008                       # Number of bytes read from this memory
system.mem_ctrl.dram.bytes_inst_read::.cpu.inst        35968                       # Number of instructions bytes read from this memory
system.mem_ctrl.dram.bytes_inst_read::total        35968                       # Number of instructions bytes read from this memory
system.mem_ctrl.dram.num_reads::.cpu.inst          562                       # Number of read requests responded to by this memory
system.mem_ctrl.dram.num_reads::.cpu.data          235                       # Number of read requests responded to by this memory
system.mem_ctrl.dram.num_reads::total             797                       # Number of read requests responded to by this memory
system.mem_ctrl.dram.bw_read::.cpu.inst     375962956                       # Total read bandwidth from this memory (bytes/s)
system.mem_ctrl.dram.bw_read::.cpu.data     157208709                       # Total read bandwidth from this memory (bytes/s)
system.mem_ctrl.dram.bw_read::total         533171665                       # Total read bandwidth from this memory (bytes/s)
system.mem_ctrl.dram.bw_inst_read::.cpu.inst    375962956                       # Instruction read bandwidth from this memory (bytes/s)
system.mem_ctrl.dram.bw_inst_read::total    375962956                       # Instruction read bandwidth from this memory (bytes/s)
system.mem_ctrl.dram.bw_total::.cpu.inst    375962956                       # Total bandwidth to/from this memory (bytes/s)
system.mem_ctrl.dram.bw_total::.cpu.data    157208709                       # Total bandwidth to/from this memory (bytes/s)
system.mem_ctrl.dram.bw_total::total        533171665                       # Total bandwidth to/from this memory (bytes/s)
system.mem_ctrl.dram.readBursts                   797                       # Number of DRAM read bursts
system.mem_ctrl.dram.writeBursts                    0                       # Number of DRAM write bursts
system.mem_ctrl.dram.perBankRdBursts::0           137                       # Per bank write bursts
system.mem_ctrl.dram.perBankRdBursts::1            90                       # Per bank write bursts
system.mem_ctrl.dram.perBankRdBursts::2            41                       # Per bank write bursts
system.mem_ctrl.dram.perBankRdBursts::3            24                       # Per bank write bursts
system.mem_ctrl.dram.perBankRdBursts::4            51                       # Per bank write bursts
system.mem_ctrl.dram.perBankRdBursts::5            19                       # Per bank write bursts
system.mem_ctrl.dram.perBankRdBursts::6            73                       # Per bank write bursts
system.mem_ctrl.dram.perBankRdBursts::7            35                       # Per bank write bursts
system.mem_ctrl.dram.perBankRdBursts::8            36                       # Per bank write bursts
system.mem_ctrl.dram.perBankRdBursts::9             5                       # Per bank write bursts
system.mem_ctrl.dram.perBankRdBursts::10           21                       # Per bank write bursts
system.mem_ctrl.dram.perBankRdBursts::11           42                       # Per bank write bursts
system.mem_ctrl.dram.perBankRdBursts::12           66                       # Per bank write bursts
system.mem_ctrl.dram.perBankRdBursts::13            9                       # Per bank write bursts
system.mem_ctrl.dram.perBankRdBursts::14           78                       # Per bank write bursts
system.mem_ctrl.dram.perBankRdBursts::15           70                       # Per bank write bursts
system.mem_ctrl.dram.perBankWrBursts::0             0                       # Per bank write bursts
system.mem_ctrl.dram.perBankWrBursts::1             0                       # Per bank write bursts
system.mem_ctrl.dram.perBankWrBursts::2             0                       # Per bank write bursts
system.mem_ctrl.dram.perBankWrBursts::3             0                       # Per bank write bursts
system.mem_ctrl.dram.perBankWrBursts::4             0                       # Per bank write bursts
system.mem_ctrl.dram.perBankWrBursts::5             0                       # Per bank write bursts
system.mem_ctrl.dram.perBankWrBursts::6             0                       # Per bank write bursts
system.mem_ctrl.dram.perBankWrBursts::7             0                       # Per bank write bursts
system.mem_ctrl.dram.perBankWrBursts::8             0                       # Per bank write bursts
system.mem_ctrl.dram.perBankWrBursts::9             0                       # Per bank write bursts
system.mem_ctrl.dram.perBankWrBursts::10            0                       # Per bank write bursts
system.mem_ctrl.dram.perBankWrBursts::11            0                       # Per bank write bursts
system.mem_ctrl.dram.perBankWrBursts::12            0                       # Per bank write bursts
system.mem_ctrl.dram.perBankWrBursts::13            0                       # Per bank write bursts
system.mem_ctrl.dram.perBankWrBursts::14            0                       # Per bank write bursts
system.mem_ctrl.dram.perBankWrBursts::15            0                       # Per bank write bursts
system.mem_ctrl.dram.totQLat                  5708194                       # Total ticks spent queuing
system.mem_ctrl.dram.totBusLat                2990344                       # Total ticks spent in databus transfers
system.mem_ctrl.dram.totMemAccLat            19131268                       # Total ticks spent from burst creation until serviced by the DRAM
system.mem_ctrl.dram.avgQLat                  7162.10                       # Average queueing delay per DRAM burst
system.mem_ctrl.dram.avgBusLat                3752.00                       # Average bus latency per DRAM burst
system.mem_ctrl.dram.avgMemAccLat            24004.10                       # Average memory access latency per DRAM burst
system.mem_ctrl.dram.readRowHits                  619                       # Number of row buffer hits during reads
system.mem_ctrl.dram.writeRowHits                   0                       # Number of row buffer hits during writes
system.mem_ctrl.dram.readRowHitRate             77.67                       # Row buffer hit rate for reads
system.mem_ctrl.dram.writeRowHitRate              nan                       # Row buffer hit rate for writes
system.mem_ctrl.dram.bytesPerActivate::samples          176                       # Bytes accessed per row activation
system.mem_ctrl.dram.bytesPerActivate::mean   284.727273                       # Bytes accessed per row activation
system.mem_ctrl.dram.bytesPerActivate::gmean   181.103537                       # Bytes accessed per row activation
system.mem_ctrl.dram.bytesPerActivate::stdev   294.500943                       # Bytes accessed per row activation
system.mem_ctrl.dram.bytesPerActivate::0-127           54     30.68%     30.68% # Bytes accessed per row activation
system.mem_ctrl.dram.bytesPerActivate::128-255           57     32.39%     63.07% # Bytes accessed per row activation
system.mem_ctrl.dram.bytesPerActivate::256-383           22     12.50%     75.57% # Bytes accessed per row activation
system.mem_ctrl.dram.bytesPerActivate::384-511           10      5.68%     81.25% # Bytes accessed per row activation
system.mem_ctrl.dram.bytesPerActivate::512-639            7      3.98%     85.23% # Bytes accessed per row activation
system.mem_ctrl.dram.bytesPerActivate::640-767            3      1.70%     86.93% # Bytes accessed per row activation
system.mem_ctrl.dram.bytesPerActivate::768-895            7      3.98%     90.91% # Bytes accessed per row activation
system.mem_ctrl.dram.bytesPerActivate::896-1023            1      0.57%     91.48% # Bytes accessed per row activation
system.mem_ctrl.dram.bytesPerActivate::1024-1151           15      8.52%    100.00% # Bytes accessed per row activation
system.mem_ctrl.dram.bytesPerActivate::total          176                       # Bytes accessed per row activation
system.mem_ctrl.dram.bytesRead                  51008                       # Total number of bytes read from DRAM
system.mem_ctrl.dram.bytesWritten                   0                       # Total number of bytes written to DRAM
system.mem_ctrl.dram.avgRdBW               533.171665                       # Average DRAM read bandwidth in MiBytes/s
system.mem_ctrl.dram.avgWrBW                        0                       # Average DRAM write bandwidth in MiBytes/s
system.mem_ctrl.dram.peakBW                  17057.00                       # Theoretical peak bandwidth in MiByte/s
system.mem_ctrl.dram.busUtil                     3.13                       # Data bus utilization in percentage
system.mem_ctrl.dram.busUtilRead                 3.13                       # Data bus utilization in percentage for reads
system.mem_ctrl.dram.busUtilWrite                0.00                       # Data bus utilization in percentage for writes
system.mem_ctrl.dram.pageHitRate                77.67                       # Row buffer hit rate, read and write combined
system.mem_ctrl.dram.power_state.pwrStateResidencyTicks::UNDEFINED     95669000                       # Cumulative time (in ticks) in various power states
system.mem_ctrl.dram.rank0.actEnergy     1211595.840000                       # Energy for activate commands per rank (pJ)
system.mem_ctrl.dram.rank0.preEnergy     587630.736000                       # Energy for precharge commands per rank (pJ)
system.mem_ctrl.dram.rank0.readEnergy    3110708.160000                       # Energy for read commands per rank (pJ)
system.mem_ctrl.dram.rank0.writeEnergy              0                       # Energy for write commands per rank (pJ)
system.mem_ctrl.dram.rank0.refreshEnergy 7735303.296000                       # Energy for refresh commands per rank (pJ)
system.mem_ctrl.dram.rank0.actBackEnergy 34480774.944000                       # Energy for active background per rank (pJ)
system.mem_ctrl.dram.rank0.preBackEnergy 13482031.584000                       # Energy for precharge background per rank (pJ)
system.mem_ctrl.dram.rank0.actPowerDownEnergy            0                       # Energy for active power-down per rank (pJ)
system.mem_ctrl.dram.rank0.prePowerDownEnergy            0                       # Energy for precharge power-down per rank (pJ)
system.mem_ctrl.dram.rank0.selfRefreshEnergy            0                       # Energy for self refresh per rank (pJ)
system.mem_ctrl.dram.rank0.totalEnergy   60608044.560000                       # Total energy per rank (pJ)
system.mem_ctrl.dram.rank0.averagePower    633.518115                       # Core power per rank (mW)
system.mem_ctrl.dram.rank0.totalIdleTime            0                       # Total Idle time Per DRAM Rank
system.mem_ctrl.dram.rank0.pwrStateTime::IDLE     30085620                       # Time in different power states
system.mem_ctrl.dram.rank0.pwrStateTime::REF      3120000                       # Time in different power states
system.mem_ctrl.dram.rank0.pwrStateTime::SREF            0                       # Time in different power states
system.mem_ctrl.dram.rank0.pwrStateTime::PRE_PDN            0                       # Time in different power states
system.mem_ctrl.dram.rank0.pwrStateTime::ACT     62463380                       # Time in different power states
system.mem_ctrl.dram.rank0.pwrStateTime::ACT_PDN            0                       # Time in different power states
system.mem_ctrl.dram.rank1.actEnergy     663743.808000                       # Energy for activate commands per rank (pJ)
system.mem_ctrl.dram.rank1.preEnergy     327617.136000                       # Energy for precharge commands per rank (pJ)
system.mem_ctrl.dram.rank1.readEnergy    2164258.656000                       # Energy for read commands per rank (pJ)
system.mem_ctrl.dram.rank1.writeEnergy              0                       # Energy for write commands per rank (pJ)
system.mem_ctrl.dram.rank1.refreshEnergy 7735303.296000                       # Energy for refresh commands per rank (pJ)
system.mem_ctrl.dram.rank1.actBackEnergy 38679127.872000                       # Energy for active background per rank (pJ)
system.mem_ctrl.dram.rank1.preBackEnergy 9951598.440000                       # Energy for precharge background per rank (pJ)
system.mem_ctrl.dram.rank1.actPowerDownEnergy            0                       # Energy for active power-down per rank (pJ)
system.mem_ctrl.dram.rank1.prePowerDownEnergy            0                       # Energy for precharge power-down per rank (pJ)
system.mem_ctrl.dram.rank1.selfRefreshEnergy            0                       # Energy for self refresh per rank (pJ)
system.mem_ctrl.dram.rank1.totalEnergy   59521649.208000                       # Total energy per rank (pJ)
system.mem_ctrl.dram.rank1.averagePower    622.162343                       # Core power per rank (mW)
system.mem_ctrl.dram.rank1.totalIdleTime            0                       # Total Idle time Per DRAM Rank
system.mem_ctrl.dram.rank1.pwrStateTime::IDLE     22121912                       # Time in different power states
system.mem_ctrl.dram.rank1.pwrStateTime::REF      3120000                       # Time in different power states
system.mem_ctrl.dram.rank1.pwrStateTime::SREF            0                       # Time in different power states
system.mem_ctrl.dram.rank1.pwrStateTime::PRE_PDN            0                       # Time in different power states
system.mem_ctrl.dram.rank1.pwrStateTime::ACT     70427088                       # Time in different power states
system.mem_ctrl.dram.rank1.pwrStateTime::ACT_PDN            0                       # Time in different power states
system.mem_ctrl.power_state.pwrStateResidencyTicks::UNDEFINED     95669000                       # Cumulative time (in ticks) in various power states
system.membus.trans_dist::ReadResp                677                       # Transaction distribution
system.membus.trans_dist::ReadExReq               120                       # Transaction distribution
system.membus.trans_dist::ReadExResp              120                       # Transaction distribution
system.membus.trans_dist::ReadSharedReq           677                       # Transaction distribution
system.membus.pkt_count_system.l2cache.mem_side_port::system.mem_ctrl.port         1594                       # Packet count per connected requestor and responder (bytes)
system.membus.pkt_count_system.l2cache.mem_side_port::total         1594                       # Packet count per connected requestor and responder (bytes)
system.membus.pkt_count::total                   1594                       # Packet count per connected requestor and responder (bytes)
system.membus.pkt_size_system.l2cache.mem_side_port::system.mem_ctrl.port        51008                       # Cumulative packet size per connected requestor and responder (bytes)
system.membus.pkt_size_system.l2cache.mem_side_port::total        51008                       # Cumulative packet size per connected requestor and responder (bytes)
system.membus.pkt_size::total                   51008                       # Cumulative packet size per connected requestor and responder (bytes)
system.membus.snoops                                0                       # Total snoops (count)
system.membus.snoopTraffic                          0                       # Total snoop traffic (bytes)
system.membus.snoop_fanout::samples               797                       # Request fanout histogram
system.membus.snoop_fanout::mean                    0                       # Request fanout histogram
system.membus.snoop_fanout::stdev                   0                       # Request fanout histogram
system.membus.snoop_fanout::underflows              0      0.00%      0.00% # Request fanout histogram
system.membus.snoop_fanout::0                     797    100.00%    100.00% # Request fanout histogram
system.membus.snoop_fanout::1                       0      0.00%    100.00% # Request fanout histogram
system.membus.snoop_fanout::overflows               0      0.00%    100.00% # Request fanout histogram
system.membus.snoop_fanout::min_value               0                       # Request fanout histogram
system.membus.snoop_fanout::max_value               0                       # Request fanout histogram
system.membus.snoop_fanout::total                 797                       # Request fanout histogram
system.membus.power_state.pwrStateResidencyTicks::UNDEFINED     95669000                       # Cumulative time (in ticks) in various power states
system.membus.reqLayer0.occupancy              797000                       # Layer occupancy (ticks)
system.membus.reqLayer0.utilization               0.8                       # Layer utilization (%)
system.membus.respLayer0.occupancy            1787732                       # Layer occupancy (ticks)
system.membus.respLayer0.utilization              1.9                       # Layer utilization (%)

---------- End Simulation Statistics   ----------
